
JME 2024-04-29 Tue Aug 26 14:52:19 GMT-700 2025

 39 44  0  0  0  0  0  0  0  0999 V2000
    4.8497    7.1239    0.0000 C   0  0  0  0  0  0  0  0  0  0  0  0
    3.7171    6.3010    0.0000 C   0  0  0  0  0  0  0  0  0  0  0  0
    4.1497    4.9695    0.0000 N   0  0  0  0  0  0  0  0  0  0  0  0
    5.5497    4.9695    0.0000 C   0  0  0  0  0  0  0  0  0  0  0  0
    5.9824    6.3010    0.0000 C   0  0  0  0  0  0  0  0  0  0  0  0
    6.0622    7.8239    0.0000 C   0  0  0  0  0  0  0  0  0  0  0  0
    6.0622    9.2239    0.0000 N   0  0  0  0  0  0  0  0  0  0  0  0
    4.8497    9.9239    0.0000 C   0  0  0  0  0  0  0  0  0  0  0  0
    3.6373    9.2239    0.0000 C   0  0  0  0  0  0  0  0  0  0  0  0
    3.6373    7.8239    0.0000 C   0  0  0  0  0  0  0  0  0  0  0  0
    2.4249    9.9239    0.0000 C   0  0  0  0  0  0  0  0  0  0  0  0
    1.2124    9.2239    0.0000 C   0  0  0  0  0  0  0  0  0  0  0  0
    1.2124    7.8239    0.0000 C   0  0  0  0  0  0  0  0  0  0  0  0
    2.4249    7.1239    0.0000 C   0  0  0  0  0  0  0  0  0  0  0  0
    4.8497   11.3239    0.0000 O   0  0  0  0  0  0  0  0  0  0  0  0
    7.2746    9.9239    0.0000 C   0  0  0  0  0  0  0  0  0  0  0  0
    8.4870    9.2239    0.0000 C   0  0  0  0  0  0  0  0  0  0  0  0
    8.6334    7.8316    0.0000 N   0  0  0  0  0  0  0  0  0  0  0  0
   10.0028    7.5405    0.0000 N   0  0  0  0  0  0  0  0  0  0  0  0
   10.7028    8.7529    0.0000 N   0  0  0  0  0  0  0  0  0  0  0  0
    9.7660    9.7933    0.0000 C   0  0  0  0  0  0  0  0  0  0  0  0
    0.0000    7.1239    0.0000 Cl  0  0  0  0  0  0  0  0  0  0  0  0
   12.0951    8.8993    0.0000 C   0  0  0  0  0  0  0  0  0  0  0  0
    3.3268    3.8369    0.0000 C   0  0  0  0  0  0  0  0  0  0  0  0
    1.9345    3.9832    0.0000 C   0  0  0  0  0  0  0  0  0  0  0  0
    1.1116    2.8506    0.0000 N   0  0  0  0  0  0  0  0  0  0  0  0
    1.6810    1.5716    0.0000 C   0  0  0  0  0  0  0  0  0  0  0  0
    3.0734    1.4253    0.0000 C   0  0  0  0  0  0  0  0  0  0  0  0
    3.8963    2.5579    0.0000 C   0  0  0  0  0  0  0  0  0  0  0  0
    3.6428    0.1463    0.0000 C   0  0  0  0  0  0  0  0  0  0  0  0
    5.0351    0.0000    0.0000 C   0  0  0  0  0  0  0  0  0  0  0  0
    5.8580    1.1326    0.0000 C   0  0  0  0  0  0  0  0  0  0  0  0
    5.2886    2.4116    0.0000 C   0  0  0  0  0  0  0  0  0  0  0  0
    2.3205    6.2039    0.0000 O   0  0  0  0  0  0  0  0  0  0  0  0
    7.3138    6.7336    0.0000 C   0  0  0  0  0  0  0  0  0  0  0  0
    8.3542    5.7968    0.0000 N   0  0  0  0  0  0  0  0  0  0  0  0
    8.0632    4.4274    0.0000 C   0  0  0  0  0  0  0  0  0  0  0  0
    6.7317    3.9948    0.0000 C   0  0  0  0  0  0  0  0  0  0  0  0
    9.1036    3.4906    0.0000 C   0  0  0  0  0  0  0  0  0  0  0  0
  2  3  1  0  0  0  0
  3  4  1  0  0  0  0
  4  5  1  0  0  0  0
  1  5  1  0  0  0  0
  1  2  1  1  0  0  0
  6  7  1  0  0  0  0
  7  8  1  0  0  0  0
  8  9  1  0  0  0  0
  9 10  1  0  0  0  0
 11 12  1  0  0  0  0
 12 13  2  0  0  0  0
 13 14  1  0  0  0  0
 10 14  2  0  0  0  0
  9 11  2  0  0  0  0
  8 15  2  0  0  0  0
  7 16  1  0  0  0  0
 16 17  1  0  0  0  0
 18 19  2  0  0  0  0
 19 20  1  0  0  0  0
 20 21  1  0  0  0  0
 17 21  2  0  0  0  0
 17 18  1  0  0  0  0
  1 10  1  0  0  0  0
 13 22  1  0  0  0  0
 20 23  1  0  0  0  0
  3 24  1  0  0  0  0
 25 26  1  0  0  0  0
 26 27  2  0  0  0  0
 27 28  1  0  0  0  0
 28 29  2  0  0  0  0
 24 29  1  0  0  0  0
 24 25  2  0  0  0  0
 30 31  2  0  0  0  0
 31 32  1  0  0  0  0
 32 33  2  0  0  0  0
 29 33  1  0  0  0  0
 28 30  1  0  0  0  0
  2 34  2  0  0  0  0
  5 35  1  1  0  0  0
 35 36  1  0  0  0  0
 36 37  1  0  0  0  0
 37 38  1  0  0  0  0
 37 39  1  0  0  0  0
  1  6  1  0  0  0  0
M  END
> <From>
www.bindingDB.org

> <BindingDB Reactant_set_id>
1515155

> <Ligand InChI>


> <Ligand InChI Key>


> <BindingDB MonomerID>
736193

> <BindingDB Ligand Name>
(4S,4'S)-6-chloro-4'-[(isopropylamino)methyl]-1'-(4-isoquinolyl)-2-[(1-methyltriazol-4-yl)methyl]spiro[3H-isoquinoUne-4,3'-pyrrolidine]-1,2,-dione::WO2025125695, Example 1

> <Target Name>
Replicase polyprotein 1ab

> <Target Source Organism According to Curator or DataSource>
Severe acute respiratory syndrome coronavirus 2

> <Ki (nM)>


> <IC50 (nM)>
 2

> <Kd (nM)>


> <EC50 (nM)>


> <kon (M-1-s-1)>


> <koff (s-1)>


> <pH>


> <Temp C>


> <Curation/DataSource>
WIPO

> <Article DOI>


> <BindingDB Entry DOI>
10.7270/Q2805754

> <PMID>


> <PubChem AID>


> <Patent Number>
WO2025125695

> <Authors>
GRIFFEN, EJ; COUSINS, DL; STACEY-JEPSON, JE; LEFKER, BA; ROBINSON, RP

> <Date of publication>
4/23/2025

> <Date in BindingDB>
8/28/2025

> <Institution>
Medchemica

> <Link to Ligand in BindingDB>
http://www.bindingdb.org/bind/chemsearch/marvin/MolStructure.jsp?monomerid=736193

> <Link to Ligand-Target Pair in BindingDB>
http://www.bindingdb.org/rwd/jsp/dbsearch/PrimarySearch_ki.jsp?energyterm=kJ/mole&tag=pol&polymerid=770&target=Replicase+polyprotein+1ab&column=ki&startPg=0&Increment=50&submit=Search

> <Link to Ligand-Target Pair in BindingDB>
http://www.bindingdb.org/rwd/jsp/dbsearch/PrimarySearch_ki.jsp?energyterm=kJ/mole&tag=r21&monomerid=736193&enzyme=Replicase+polyprotein+1ab&column=ki&startPg=0&Increment=50&submit=Search

> <Ligand HET ID in PDB>


> <PDB ID(s) for Ligand-Target Complex>


> <PubChem CID of Ligand>
175670502

> <PubChem SID of Ligand>
518296816

> <ChEBI ID of Ligand>


> <ChEMBL ID of Ligand>


> <DrugBank ID of Ligand>


> <IUPHAR_GRAC ID of Ligand>


> <KEGG ID of Ligand>


> <ZINC ID of Ligand>


> <Number of Protein Chains in Target (bigger than 1 implies a multichain complex)>
1

> <BindingDB Target Chain Sequence>
MESLVPGFNEKTHVQLSLPVLQVRDVLVRGFGDSVEEVLSEARQHLKDGTCGLVEVEKGVLPQLEQPYVFIKRSDARTAPHGHVMVELVAELEGIQYGRSGETLGVLVPHVGEIPVAYRKVLLRKNGNKGAGGHSYGADLKSFDLGDELGTDPYEDFQENWNTKHSSGVTRELMRELNGGAYTRYVDNNFCGPDGYPLECIKDLLARAGKASCTLSEQLDFIDTKRGVYCCREHEHEIAWYTERSEKSYELQTPFEIKLAKKFDTFNGECPNFVFPLNSIIKTIQPRVEKKKLDGFMGRIRSVYPVASPNECNQMCLSTLMKCDHCGETSWQTGDFVKATCEFCGTENLTKEGATTCGYLPQNAVVKIYCPACHNSEVGPEHSLAEYHNESGLKTILRKGGRTIAFGGCVFSYVGCHNKCAYWVPRASANIGCNHTGVVGEGSEGLNDNLLEILQKEKVNINIVGDFKLNEEIAIILASFSASTSAFVETVKGLDYKAFKQIVESCGNFKVTKGKAKKGAWNIGEQKSILSPLYAFASEAARVVRSIFSRTLETAQNSVRVLQKAAITILDGISQYSLRLIDAMMFTSDLATNNLVVMAYITGGVVQLTSQWLTNIFGTVYEKLKPVLDWLEEKFKEGVEFLRDGWEIVKFISTCACEIVGGQIVTCAKEIKESVQTFFKLVNKFLALCADSIIIGGAKLKALNLGETFVTHSKGLYRKCVKSREETGLLMPLKAPKEIIFLEGETLPTEVLTEEVVLKTGDLQPLEQPTSEAVEAPLVGTPVCINGLMLLEIKDTEKYCALAPNMMVTNNTFTLKGGAPTKVTFGDDTVIEVQGYKSVNITFELDERIDKVLNEKCSAYTVELGTEVNEFACVVADAVIKTLQPVSELLTPLGIDLDEWSMATYYLFDESGEFKLASHMYCSFYPPDEDEEEGDCEEEEFEPSTQYEYGTEDDYQGKPLEFGATSAALQPEEEQEEDWLDDDSQQTVGQQDGSEDNQTTTIQTIVEVQPQLEMELTPVVQTIEVNSFSGYLKLTDNVYIKNADIVEEAKKVKPTVVVNAANVYLKHGGGVAGALNKATNNAMQVESDDYIATNGPLKVGGSCVLSGHNLAKHCLHVVGPNVNKGEDIQLLKSAYENFNQHEVLLAPLLSAGIFGADPIHSLRVCVDTVRTNVYLAVFDKNLYDKLVSSFLEMKSEKQVEQKIAEIPKEEVKPFITESKPSVEQRKQDDKKIKACVEEVTTTLEETKFLTENLLLYIDINGNLHPDSATLVSDIDITFLKKDAPYIVGDVVQEGVLTAVVIPTKKAGGTTEMLAKALRKVPTDNYITTYPGQGLNGYTVEEAKTVLKKCKSAFYILPSIISNEKQEILGTVSWNLREMLAHAEETRKLMPVCVETKAIVSTIQRKYKGIKIQEGVVDYGARFYFYTSKTTVASLINTLNDLNETLVTMPLGYVTHGLNLEEAARYMRSLKVPATVSVSSPDAVTAYNGYLTSSSKTPEEHFIETISLAGSYKDWSYSGQSTQLGIEFLKRGDKSVYYTSNPTTFHLDGEVITFDNLKTLLSLREVRTIKVFTTVDNINLHTQVVDMSMTYGQQFGPTYLDGADVTKIKPHNSHEGKTFYVLPNDDTLRVEAFEYYHTTDPSFLGRYMSALNHTKKWKYPQVNGLTSIKWADNNCYLATALLTLQQIELKFNPPALQDAYYRARAGEAANFCALILAYCNKTVGELGDVRETMSYLFQHANLDSCKRVLNVVCKTCGQQQTTLKGVEAVMYMGTLSYEQFKKGVQIPCTCGKQATKYLVQQESPFVMMSAPPAQYELKHGTFTCASEYTGNYQCGHYKHITSKETLYCIDGALLTKSSEYKGPITDVFYKENSYTTTIKPVTYKLDGVVCTEIDPKLDNYYKKDNSYFTEQPIDLVPNQPYPNASFDNFKFVCDNIKFADDLNQLTGYKKPASRELKVTFFPDLNGDVVAIDYKHYTPSFKKGAKLLHKPIVWHVNNATNKATYKPNTWCIRCLWSTKPVETSNSFDVLKSEDAQGMDNLACEDLKPVSEEVVENPTIQKDVLECNVKTTEVVGDIILKPANNSLKITEEVGHTDLMAAYVDNSSLTIKKPNELSRVLGLKTLATHGLAAVNSVPWDTIANYAKPFLNKVVSTTTNIVTRCLNRVCTNYMPYFFTLLLQLCTFTRSTNSRIKASMPTTIAKNTVKSVGKFCLEASFNYLKSPNFSKLINIIIWFLLLSVCLGSLIYSTAALGVLMSNLGMPSYCTGYREGYLNSTNVTIATYCTGSIPCSVCLSGLDSLDTYPSLETIQITISSFKWDLTAFGLVAEWFLAYILFTRFFYVLGLAAIMQLFFSYFAVHFISNSWLMWLIINLVQMAPISAMVRMYIFFASFYYVWKSYVHVVDGCNSSTCMMCYKRNRATRVECTTIVNGVRRSFYVYANGGKGFCKLHNWNCVNCDTFCAGSTFISDEVARDLSLQFKRPINPTDQSSYIVDSVTVKNGSIHLYFDKAGQKTYERHSLSHFVNLDNLRANNTKGSLPINVIVFDGKSKCEESSAKSASVYYSQLMCQPILLLDQALVSDVGDSAEVAVKMFDAYVNTFSSTFNVPMEKLKTLVATAEAELAKNVSLDNVLSTFISAARQGFVDSDVETKDVVECLKLSHQSDIEVTGDSCNNYMLTYNKVENMTPRDLGACIDCSARHINAQVAKSHNIALIWNVKDFMSLSEQLRKQIRSAAKKNNLPFKLTCATTRQVVNVVTTKIALKGGKIVNNWLKQLIKVTLVFLFVAAIFYLITPVHVMSKHTDFSSEIIGYKAIDGGVTRDIASTDTCFANKHADFDTWFSQRGGSYTNDKACPLIAAVITREVGFVVPGLPGTILRTTNGDFLHFLPRVFSAVGNICYTPSKLIEYTDFATSACVLAAECTIFKDASGKPVPYCYDTNVLEGSVAYESLRPDTRYVLMDGSIIQFPNTYLEGSVRVVTTFDSEYCRHGTCERSEAGVCVSTSGRWVLNNDYYRSLPGVFCGVDAVNLLTNMFTPLIQPIGALDISASIVAGGIVAIVVTCLAYYFMRFRRAFGEYSHVVAFNTLLFLMSFTVLCLTPVYSFLPGVYSVIYLYLTFYLTNDVSFLAHIQWMVMFTPLVPFWITIAYIICISTKHFYWFFSNYLKRRVVFNGVSFSTFEEAALCTFLLNKEMYLKLRSDVLLPLTQYNRYLALYNKYKYFSGAMDTTSYREAACCHLAKALNDFSNSGSDVLYQPPQTSITSAVLQSGFRKMAFPSGKVEGCMVQVTCGTTTLNGLWLDDVVYCPRHVICTSEDMLNPNYEDLLIRKSNHNFLVQAGNVQLRVIGHSMQNCVLKLKVDTANPKTPKYKFVRIQPGQTFSVLACYNGSPSGVYQCAMRPNFTIKGSFLNGSCGSVGFNIDYDCVSFCYMHHMELPTGVHAGTDLEGNFYGPFVDRQTAQAAGTDTTITVNVLAWLYAAVINGDRWFLNRFTTTLNDFNLVAMKYNYEPLTQDHVDILGPLSAQTGIAVLDMCASLKELLQNGMNGRTILGSALLEDEFTPFDVVRQCSGVTFQSAVKRTIKGTHHWLLLTILTSLLVLVQSTQWSLFFFLYENAFLPFAMGIIAMSAFAMMFVKHKHAFLCLFLLPSLATVAYFNMVYMPASWVMRIMTWLDMVDTSLSGFKLKDCVMYASAVVLLILMTARTVYDDGARRVWTLMNVLTLVYKVYYGNALDQAISMWALIISVTSNYSGVVTTVMFLARGIVFMCVEYCPIFFITGNTLQCIMLVYCFLGYFCTCYFGLFCLLNRYFRLTLGVYDYLVSTQEFRYMNSQGLLPPKNSIDAFKLNIKLLGVGGKPCIKVATVQSKMSDVKCTSVVLLSVLQQLRVESSSKLWAQCVQLHNDILLAKDTTEAFEKMVSLLSVLLSMQGAVDINKLCEEMLDNRATLQAIASEFSSLPSYAAFATAQEAYEQAVANGDSEVVLKKLKKSLNVAKSEFDRDAAMQRKLEKMADQAMTQMYKQARSEDKRAKVTSAMQTMLFTMLRKLDNDALNNIINNARDGCVPLNIIPLTTAAKLMVVIPDYNTYKNTCDGTTFTYASALWEIQQVVDADSKIVQLSEISMDNSPNLAWPLIVTALRANSAVKLQNNELSPVALRQMSCAAGTTQTACTDDNALAYYNTTKGGRFVLALLSDLQDLKWARFPKSDGTGTIYTELEPPCRFVTDTPKGPKVKYLYFIKGLNNLNRGMVLGSLAATVRLQAGNATEVPANSTVLSFCAFAVDAAKAYKDYLASGGQPITNCVKMLCTHTGTGQAITVTPEANMDQESFGGASCCLYCRCHIDHPNPKGFCDLKGKYVQIPTTCANDPVGFTLKNTVCTVCGMWKGYGCSCDQLREPMLQSADAQSFLNRVCGVSAARLTPCGTGTSTDVVYRAFDIYNDKVAGFAKFLKTNCCRFQEKDEDDNLIDSYFVVKRHTFSNYQHEETIYNLLKDCPAVAKHDFFKFRIDGDMVPHISRQRLTKYTMADLVYALRHFDEGNCDTLKEILVTYNCCDDDYFNKKDWYDFVENPDILRVYANLGERVRQALLKTVQFCDAMRNAGIVGVLTLDNQDLNGNWYDFGDFIQTTPGSGVPVVDSYYSLLMPILTLTRALTAESHVDTDLTKPYIKWDLLKYDFTEERLKLFDRYFKYWDQTYHPNCVNCLDDRCILHCANFNVLFSTVFPPTSFGPLVRKIFVDGVPFVVSTGYHFRELGVVHNQDVNLHSSRLSFKELLVYAADPAMHAASGNLLLDKRTTCFSVAALTNNVAFQTVKPGNFNKDFYDFAVSKGFFKEGSSVELKHFFFAQDGNAAISDYDYYRYNLPTMCDIRQLLFVVEVVDKYFDCYDGGCINANQVIVNNLDKSAGFPFNKWGKARLYYDSMSYEDQDALFAYTKRNVIPTITQMNLKYAISAKNRARTVAGVSICSTMTNRQFHQKLLKSIAATRGATVVIGTSKFYGGWHNMLKTVYSDVENPHLMGWDYPKCDRAMPNMLRIMASLVLARKHTTCCSLSHRFYRLANECAQVLSEMVMCGGSLYVKPGGTSSGDATTAYANSVFNICQAVTANVNALLSTDGNKIADKYVRNLQHRLYECLYRNRDVDTDFVNEFYAYLRKHFSMMILSDDAVVCFNSTYASQGLVASIKNFKSVLYYQNNVFMSEAKCWTETDLTKGPHEFCSQHTMLVKQGDDYVYLPYPDPSRILGAGCFVDDIVKTDGTLMIERFVSLAIDAYPLTKHPNQEYADVFHLYLQYIRKLHDELTGHMLDMYSVMLTNDNTSRYWEPEFYEAMYTPHTVLQAVGACVLCNSQTSLRCGACIRRPFLCCKCCYDHVISTSHKLVLSVNPYVCNAPGCDVTDVTQLYLGGMSYYCKSHKPPISFPLCANGQVFGLYKNTCVGSDNVTDFNAIATCDWTNAGDYILANTCTERLKLFAAETLKATEETFKLSYGIATVREVLSDRELHLSWEVGKPRPPLNRNYVFTGYRVTKNSKVQIGEYTFEKGDYGDAVVYRGTTTYKLNVGDYFVLTSHTVMPLSAPTLVPQEHYVRITGLYPTLNISDEFSSNVANYQKVGMQKYSTLQGPPGTGKSHFAIGLALYYPSARIVYTACSHAAVDALCEKALKYLPIDKCSRIIPARARVECFDKFKVNSTLEQYVFCTVNALPETTADIVVFDEISMATNYDLSVVNARLRAKHYVYIGDPAQLPAPRTLLTKGTLEPEYFNSVCRLMKTIGPDMFLGTCRRCPAEIVDTVSALVYDNKLKAHKDKSAQCFKMFYKGVITHDVSSAINRPQIGVVREFLTRNPAWRKAVFISPYNSQNAVASKILGLPTQTVDSSQGSEYDYVIFTQTTETAHSCNVNRFNVAITRAKVGILCIMSDRDLYDKLQFTSLEIPRRNVATLQAENVTGLFKDCSKVITGLHPTQAPTHLSVDTKFKTEGLCVDIPGIPKDMTYRRLISMMGFKMNYQVNGYPNMFITREEAIRHVRAWIGFDVEGCHATREAVGTNLPLQLGFSTGVNLVAVPTGYVDTPNNTDFSRVSAKPPPGDQFKHLIPLMYKGLPWNVVRIKIVQMLSDTLKNLSDRVVFVLWAHGFELTSMKYFVKIGPERTCCLCDRRATCFSTASDTYACWHHSIGFDYVYNPFMIDVQQWGFTGNLQSNHDLYCQVHGNAHVASCDAIMTRCLAVHECFVKRVDWTIEYPIIGDELKINAACRKVQHMVVKAALLADKFPVLHDIGNPKAIKCVPQADVEWKFYDAQPCSDKAYKIEELFYSYATHSDKFTDGVCLFWNCNVDRYPANSIVCRFDTRVLSNLNLPGCDGGSLYVNKHAFHTPAFDKSAFVNLKQLPFFYYSDSPCESHGKQVVSDIDYVPLKSATCITRCNLGGAVCRHHANEYRLYLDAYNMMISAGFSLWVYKQFDTYNLWNTFTRLQSLENVAFNVVNKGHFDGQQGEVPVSIINNTVYTKVDGVDVELFENKTTLPVNVAFELWAKRNIKPVPEVKILNNLGVDIAANTVIWDYKRDAPAHISTIGVCSMTDIAKKPTETICAPLTVFFDGRVDGQVDLFRNARNGVLITEGSVKGLQPSVGPKQASLNGVTLIGEAVKTQFNYYKKVDGVVQQLPETYFTQSRNLQEFKPRSQMEIDFLELAMDEFIERYKLEGYAFEHIVYGDFSHSQLGGLHLLIGLAKRFKESPFELEDFIPMDSTVKNYFITDAQTGSSKCVCSVIDLLLDDFVEIIKSQDLSVVSKVVKVTIDYTEISFMLWCKDGHVETFYPKLQSSQAWQPGVAMPNLYKMQRMLLEKCDLQNYGDSATLPKGIMMNVAKYTQLCQYLNTLTLAVPYNMRVIHFGAGSDKGVAPGTAVLRQWLPTGTLLVDSDLNDFVSDADSTLIGDCATVHTANKWDLIISDMYDPKTKNVTKENDSKEGFFTYICGFIQQKLALGGSVAIKITEHSWNADLYKLMGHFAWWTAFVTNVNASSSEAFLIGCNYLGKPREQIDGYVMHANYIFWRNTNPIQLSSYSLFDMSKFPLKLRGTAVMSLKEGQINDMILSLLSKGRLIIRENNRVVISSDVLVNN

> <PDB ID(s) of Target Chain>
8YB7,8YB5,8YAX,7O81,7O80,7O7Z,7O7Y,7OYG,7B3D,7B3C,7B3B,6YYT,9UHT,9L09,9IMM,9IMK,9I81,9DJ8,8SQJ,8SQ9,8GY6,8GWO,8GWN,8GWM,8GWK,8GWI,8GWG,8GWF,8GWE,8GWB,7UOE,7UOB,7UO9,7UO7,7UO4,7THM,7RE3,7RE2,7RE1,7RE0,7RDZ,7RDY,7RDX,7OZV,7OZU,7KRP,7KRO,7KRN,7EGQ,7CTT,6XEZ,6XQB,8XCH,7CYQ,7BZF,7BTF,6M71,9IKZ,7ED5,7AAP,8GW1,7CXN,7CXM,8SQK,7EIZ,9SAR,9SAP,7BW4,7L1F,7MSX,7MSW,7NNG,5ROB,5RMM,5RML,5RMK,5RMJ,5RMI,5RMH,5RMG,5RMF,5RME,5RMD,5RMC,5RMB,5RMA,5RM9,5RM8,5RM7,5RM6,5RM5,5RM4,5RM3,5RM2,5RM1,5RM0,5RLZ,5RLY,5RLW,5RLV,5RLU,5RLT,5RLS,5RLR,5RLQ,5RLP,5RLO,5RLN,5RLM,5RLL,5RLK,5RLJ,5RLI,5RLH,5RLG,5RLF,5RLE,5RLD,5RLC,5RLB,5RL9,5RL8,5RL7,5RL6,9I53,9I51,9I4V,9I1S,7NN0,7NIO,6ZSL,9VCL,7N0B,9S2V,9R5T,8R7B,9VCK,9NJG,9NIO,9NHU,9NHA,9NFP,9NAZ,7QIF,7QGI,5SMK,5SMI,5SMH,5SMG,5SMF,5SME,5SMD,5SMC,5SMB,5SMA,5SM9,5SM8,5SM7,5SM6,5SM5,5SM4,5SM3,5SM2,5SM1,5SM0,5SLZ,5SLY,5SLX,5SLW,5SLV,5SLU,5SLT,5SLS,5SLR,5SLQ,5SLP,5SLO,5SLN,5SLM,5SLL,5SLK,5SLJ,5SLI,5SLH,5SLG,5SLF,5SLE,5SLD,5SLC,5SLB,5SLA,5SL9,5SL8,5SL7,5SL6,5SL5,5SL4,5SL3,5SL2,5SL1,5SL0,5SKZ,5SKY,5SKX,5SKW,8EIR,7K0R,7RB2,7RB0,7N83,7N7Y,7N7W,7N7U,7N7R,7KF4,7KEH,7KEG,5SBF,5SAI

> <UniProt (SwissProt) Recommended Name of Target Chain>
Replicase polyprotein 1ab

> <UniProt (SwissProt) Entry Name of Target Chain>
R1AB_SARS2

> <UniProt (SwissProt) Primary ID of Target Chain>
P0DTD1

> <UniProt (SwissProt) Secondary ID(s) of Target Chain>


> <UniProt (SwissProt) Alternative ID(s) of Target Chain>


> <UniProt (TrEMBL) Submitted Name of Target Chain>


> <UniProt (TrEMBL) Entry Name of Target Chain>


> <UniProt (TrEMBL) Primary ID of Target Chain>


> <UniProt (TrEMBL) Secondary ID(s) of Target Chain>


> <UniProt (TrEMBL) Alternative ID(s) of Target Chain>


$$$$

JME 2024-04-29 Tue Aug 26 14:52:43 GMT-700 2025

 38 43  0  0  0  0  0  0  0  0999 V2000
    4.8497    7.1239    0.0000 C   0  0  0  0  0  0  0  0  0  0  0  0
    3.7171    6.3010    0.0000 C   0  0  0  0  0  0  0  0  0  0  0  0
    4.1497    4.9695    0.0000 N   0  0  0  0  0  0  0  0  0  0  0  0
    5.5497    4.9695    0.0000 C   0  0  0  0  0  0  0  0  0  0  0  0
    5.9824    6.3010    0.0000 C   0  0  0  0  0  0  0  0  0  0  0  0
    6.0622    7.8239    0.0000 C   0  0  0  0  0  0  0  0  0  0  0  0
    6.0622    9.2239    0.0000 N   0  0  0  0  0  0  0  0  0  0  0  0
    4.8497    9.9239    0.0000 C   0  0  0  0  0  0  0  0  0  0  0  0
    3.6373    9.2239    0.0000 C   0  0  0  0  0  0  0  0  0  0  0  0
    3.6373    7.8239    0.0000 C   0  0  0  0  0  0  0  0  0  0  0  0
    2.4249    9.9239    0.0000 C   0  0  0  0  0  0  0  0  0  0  0  0
    1.2124    9.2239    0.0000 C   0  0  0  0  0  0  0  0  0  0  0  0
    1.2124    7.8239    0.0000 C   0  0  0  0  0  0  0  0  0  0  0  0
    2.4249    7.1239    0.0000 C   0  0  0  0  0  0  0  0  0  0  0  0
    4.8497   11.3239    0.0000 O   0  0  0  0  0  0  0  0  0  0  0  0
    7.2746    9.9239    0.0000 C   0  0  0  0  0  0  0  0  0  0  0  0
    8.4870    9.2239    0.0000 C   0  0  0  0  0  0  0  0  0  0  0  0
    8.6334    7.8316    0.0000 O   0  0  0  0  0  0  0  0  0  0  0  0
   10.0028    7.5405    0.0000 N   0  0  0  0  0  0  0  0  0  0  0  0
   10.7028    8.7529    0.0000 C   0  0  0  0  0  0  0  0  0  0  0  0
    9.7660    9.7933    0.0000 C   0  0  0  0  0  0  0  0  0  0  0  0
    0.0000    7.1239    0.0000 Cl  0  0  0  0  0  0  0  0  0  0  0  0
   12.0951    8.8993    0.0000 C   0  0  0  0  0  0  0  0  0  0  0  0
    3.3268    3.8369    0.0000 C   0  0  0  0  0  0  0  0  0  0  0  0
    1.9345    3.9832    0.0000 C   0  0  0  0  0  0  0  0  0  0  0  0
    1.1116    2.8506    0.0000 N   0  0  0  0  0  0  0  0  0  0  0  0
    1.6810    1.5716    0.0000 C   0  0  0  0  0  0  0  0  0  0  0  0
    3.0734    1.4253    0.0000 C   0  0  0  0  0  0  0  0  0  0  0  0
    3.8963    2.5579    0.0000 C   0  0  0  0  0  0  0  0  0  0  0  0
    3.6428    0.1463    0.0000 C   0  0  0  0  0  0  0  0  0  0  0  0
    5.0351    0.0000    0.0000 C   0  0  0  0  0  0  0  0  0  0  0  0
    5.8580    1.1326    0.0000 C   0  0  0  0  0  0  0  0  0  0  0  0
    5.2886    2.4116    0.0000 C   0  0  0  0  0  0  0  0  0  0  0  0
    2.3205    6.2039    0.0000 O   0  0  0  0  0  0  0  0  0  0  0  0
    7.3138    6.7336    0.0000 C   0  0  0  0  0  0  0  0  0  0  0  0
    8.3542    5.7968    0.0000 N   0  0  0  0  0  0  0  0  0  0  0  0
    8.0632    4.4274    0.0000 C   0  0  0  0  0  0  0  0  0  0  0  0
    9.1036    3.4906    0.0000 C   0  0  0  0  0  0  0  0  0  0  0  0
  2  3  1  0  0  0  0
  3  4  1  0  0  0  0
  4  5  1  0  0  0  0
  1  5  1  0  0  0  0
  1  2  1  1  0  0  0
  6  7  1  0  0  0  0
  7  8  1  0  0  0  0
  8  9  1  0  0  0  0
  9 10  1  0  0  0  0
 11 12  1  0  0  0  0
 12 13  2  0  0  0  0
 13 14  1  0  0  0  0
 10 14  2  0  0  0  0
  9 11  2  0  0  0  0
  8 15  2  0  0  0  0
  7 16  1  0  0  0  0
 16 17  1  0  0  0  0
 18 19  1  0  0  0  0
 19 20  2  0  0  0  0
 20 21  1  0  0  0  0
 17 21  2  0  0  0  0
 17 18  1  0  0  0  0
  1 10  1  0  0  0  0
 13 22  1  0  0  0  0
 20 23  1  0  0  0  0
  3 24  1  0  0  0  0
 25 26  1  0  0  0  0
 26 27  2  0  0  0  0
 27 28  1  0  0  0  0
 28 29  2  0  0  0  0
 24 29  1  0  0  0  0
 24 25  2  0  0  0  0
 30 31  2  0  0  0  0
 31 32  1  0  0  0  0
 32 33  2  0  0  0  0
 29 33  1  0  0  0  0
 28 30  1  0  0  0  0
  2 34  2  0  0  0  0
  5 35  1  1  0  0  0
 35 36  1  0  0  0  0
 36 37  1  0  0  0  0
 37 38  1  0  0  0  0
  1  6  1  0  0  0  0
M  END
> <From>
www.bindingDB.org

> <BindingDB Reactant_set_id>
1515156

> <Ligand InChI>


> <Ligand InChI Key>


> <BindingDB MonomerID>
736194

> <BindingDB Ligand Name>
(4S,4'S)-6-chloro-4,-[(ethylamino)methyl]-1,-(4-isoquinolyl)-2-[(3-methylisoxazol-5-yl)methyl]spiro[3H-isoquinoUne-4,3'-pyrrolidine]-1,2,-dione::WO2025125695, Example 2

> <Target Name>
Replicase polyprotein 1ab

> <Target Source Organism According to Curator or DataSource>
Severe acute respiratory syndrome coronavirus 2

> <Ki (nM)>


> <IC50 (nM)>
 1

> <Kd (nM)>


> <EC50 (nM)>


> <kon (M-1-s-1)>


> <koff (s-1)>


> <pH>


> <Temp C>


> <Curation/DataSource>
WIPO

> <Article DOI>


> <BindingDB Entry DOI>
10.7270/Q2805754

> <PMID>


> <PubChem AID>


> <Patent Number>
WO2025125695

> <Authors>
GRIFFEN, EJ; COUSINS, DL; STACEY-JEPSON, JE; LEFKER, BA; ROBINSON, RP

> <Date of publication>
4/23/2025

> <Date in BindingDB>
8/28/2025

> <Institution>
Medchemica

> <Link to Ligand in BindingDB>
http://www.bindingdb.org/bind/chemsearch/marvin/MolStructure.jsp?monomerid=736194

> <Link to Ligand-Target Pair in BindingDB>
http://www.bindingdb.org/rwd/jsp/dbsearch/PrimarySearch_ki.jsp?energyterm=kJ/mole&tag=pol&polymerid=770&target=Replicase+polyprotein+1ab&column=ki&startPg=0&Increment=50&submit=Search

> <Link to Ligand-Target Pair in BindingDB>
http://www.bindingdb.org/rwd/jsp/dbsearch/PrimarySearch_ki.jsp?energyterm=kJ/mole&tag=r21&monomerid=736194&enzyme=Replicase+polyprotein+1ab&column=ki&startPg=0&Increment=50&submit=Search

> <Ligand HET ID in PDB>


> <PDB ID(s) for Ligand-Target Complex>


> <PubChem CID of Ligand>
176394987

> <PubChem SID of Ligand>
518296817

> <ChEBI ID of Ligand>


> <ChEMBL ID of Ligand>


> <DrugBank ID of Ligand>


> <IUPHAR_GRAC ID of Ligand>


> <KEGG ID of Ligand>


> <ZINC ID of Ligand>


> <Number of Protein Chains in Target (bigger than 1 implies a multichain complex)>
1

> <BindingDB Target Chain Sequence>
MESLVPGFNEKTHVQLSLPVLQVRDVLVRGFGDSVEEVLSEARQHLKDGTCGLVEVEKGVLPQLEQPYVFIKRSDARTAPHGHVMVELVAELEGIQYGRSGETLGVLVPHVGEIPVAYRKVLLRKNGNKGAGGHSYGADLKSFDLGDELGTDPYEDFQENWNTKHSSGVTRELMRELNGGAYTRYVDNNFCGPDGYPLECIKDLLARAGKASCTLSEQLDFIDTKRGVYCCREHEHEIAWYTERSEKSYELQTPFEIKLAKKFDTFNGECPNFVFPLNSIIKTIQPRVEKKKLDGFMGRIRSVYPVASPNECNQMCLSTLMKCDHCGETSWQTGDFVKATCEFCGTENLTKEGATTCGYLPQNAVVKIYCPACHNSEVGPEHSLAEYHNESGLKTILRKGGRTIAFGGCVFSYVGCHNKCAYWVPRASANIGCNHTGVVGEGSEGLNDNLLEILQKEKVNINIVGDFKLNEEIAIILASFSASTSAFVETVKGLDYKAFKQIVESCGNFKVTKGKAKKGAWNIGEQKSILSPLYAFASEAARVVRSIFSRTLETAQNSVRVLQKAAITILDGISQYSLRLIDAMMFTSDLATNNLVVMAYITGGVVQLTSQWLTNIFGTVYEKLKPVLDWLEEKFKEGVEFLRDGWEIVKFISTCACEIVGGQIVTCAKEIKESVQTFFKLVNKFLALCADSIIIGGAKLKALNLGETFVTHSKGLYRKCVKSREETGLLMPLKAPKEIIFLEGETLPTEVLTEEVVLKTGDLQPLEQPTSEAVEAPLVGTPVCINGLMLLEIKDTEKYCALAPNMMVTNNTFTLKGGAPTKVTFGDDTVIEVQGYKSVNITFELDERIDKVLNEKCSAYTVELGTEVNEFACVVADAVIKTLQPVSELLTPLGIDLDEWSMATYYLFDESGEFKLASHMYCSFYPPDEDEEEGDCEEEEFEPSTQYEYGTEDDYQGKPLEFGATSAALQPEEEQEEDWLDDDSQQTVGQQDGSEDNQTTTIQTIVEVQPQLEMELTPVVQTIEVNSFSGYLKLTDNVYIKNADIVEEAKKVKPTVVVNAANVYLKHGGGVAGALNKATNNAMQVESDDYIATNGPLKVGGSCVLSGHNLAKHCLHVVGPNVNKGEDIQLLKSAYENFNQHEVLLAPLLSAGIFGADPIHSLRVCVDTVRTNVYLAVFDKNLYDKLVSSFLEMKSEKQVEQKIAEIPKEEVKPFITESKPSVEQRKQDDKKIKACVEEVTTTLEETKFLTENLLLYIDINGNLHPDSATLVSDIDITFLKKDAPYIVGDVVQEGVLTAVVIPTKKAGGTTEMLAKALRKVPTDNYITTYPGQGLNGYTVEEAKTVLKKCKSAFYILPSIISNEKQEILGTVSWNLREMLAHAEETRKLMPVCVETKAIVSTIQRKYKGIKIQEGVVDYGARFYFYTSKTTVASLINTLNDLNETLVTMPLGYVTHGLNLEEAARYMRSLKVPATVSVSSPDAVTAYNGYLTSSSKTPEEHFIETISLAGSYKDWSYSGQSTQLGIEFLKRGDKSVYYTSNPTTFHLDGEVITFDNLKTLLSLREVRTIKVFTTVDNINLHTQVVDMSMTYGQQFGPTYLDGADVTKIKPHNSHEGKTFYVLPNDDTLRVEAFEYYHTTDPSFLGRYMSALNHTKKWKYPQVNGLTSIKWADNNCYLATALLTLQQIELKFNPPALQDAYYRARAGEAANFCALILAYCNKTVGELGDVRETMSYLFQHANLDSCKRVLNVVCKTCGQQQTTLKGVEAVMYMGTLSYEQFKKGVQIPCTCGKQATKYLVQQESPFVMMSAPPAQYELKHGTFTCASEYTGNYQCGHYKHITSKETLYCIDGALLTKSSEYKGPITDVFYKENSYTTTIKPVTYKLDGVVCTEIDPKLDNYYKKDNSYFTEQPIDLVPNQPYPNASFDNFKFVCDNIKFADDLNQLTGYKKPASRELKVTFFPDLNGDVVAIDYKHYTPSFKKGAKLLHKPIVWHVNNATNKATYKPNTWCIRCLWSTKPVETSNSFDVLKSEDAQGMDNLACEDLKPVSEEVVENPTIQKDVLECNVKTTEVVGDIILKPANNSLKITEEVGHTDLMAAYVDNSSLTIKKPNELSRVLGLKTLATHGLAAVNSVPWDTIANYAKPFLNKVVSTTTNIVTRCLNRVCTNYMPYFFTLLLQLCTFTRSTNSRIKASMPTTIAKNTVKSVGKFCLEASFNYLKSPNFSKLINIIIWFLLLSVCLGSLIYSTAALGVLMSNLGMPSYCTGYREGYLNSTNVTIATYCTGSIPCSVCLSGLDSLDTYPSLETIQITISSFKWDLTAFGLVAEWFLAYILFTRFFYVLGLAAIMQLFFSYFAVHFISNSWLMWLIINLVQMAPISAMVRMYIFFASFYYVWKSYVHVVDGCNSSTCMMCYKRNRATRVECTTIVNGVRRSFYVYANGGKGFCKLHNWNCVNCDTFCAGSTFISDEVARDLSLQFKRPINPTDQSSYIVDSVTVKNGSIHLYFDKAGQKTYERHSLSHFVNLDNLRANNTKGSLPINVIVFDGKSKCEESSAKSASVYYSQLMCQPILLLDQALVSDVGDSAEVAVKMFDAYVNTFSSTFNVPMEKLKTLVATAEAELAKNVSLDNVLSTFISAARQGFVDSDVETKDVVECLKLSHQSDIEVTGDSCNNYMLTYNKVENMTPRDLGACIDCSARHINAQVAKSHNIALIWNVKDFMSLSEQLRKQIRSAAKKNNLPFKLTCATTRQVVNVVTTKIALKGGKIVNNWLKQLIKVTLVFLFVAAIFYLITPVHVMSKHTDFSSEIIGYKAIDGGVTRDIASTDTCFANKHADFDTWFSQRGGSYTNDKACPLIAAVITREVGFVVPGLPGTILRTTNGDFLHFLPRVFSAVGNICYTPSKLIEYTDFATSACVLAAECTIFKDASGKPVPYCYDTNVLEGSVAYESLRPDTRYVLMDGSIIQFPNTYLEGSVRVVTTFDSEYCRHGTCERSEAGVCVSTSGRWVLNNDYYRSLPGVFCGVDAVNLLTNMFTPLIQPIGALDISASIVAGGIVAIVVTCLAYYFMRFRRAFGEYSHVVAFNTLLFLMSFTVLCLTPVYSFLPGVYSVIYLYLTFYLTNDVSFLAHIQWMVMFTPLVPFWITIAYIICISTKHFYWFFSNYLKRRVVFNGVSFSTFEEAALCTFLLNKEMYLKLRSDVLLPLTQYNRYLALYNKYKYFSGAMDTTSYREAACCHLAKALNDFSNSGSDVLYQPPQTSITSAVLQSGFRKMAFPSGKVEGCMVQVTCGTTTLNGLWLDDVVYCPRHVICTSEDMLNPNYEDLLIRKSNHNFLVQAGNVQLRVIGHSMQNCVLKLKVDTANPKTPKYKFVRIQPGQTFSVLACYNGSPSGVYQCAMRPNFTIKGSFLNGSCGSVGFNIDYDCVSFCYMHHMELPTGVHAGTDLEGNFYGPFVDRQTAQAAGTDTTITVNVLAWLYAAVINGDRWFLNRFTTTLNDFNLVAMKYNYEPLTQDHVDILGPLSAQTGIAVLDMCASLKELLQNGMNGRTILGSALLEDEFTPFDVVRQCSGVTFQSAVKRTIKGTHHWLLLTILTSLLVLVQSTQWSLFFFLYENAFLPFAMGIIAMSAFAMMFVKHKHAFLCLFLLPSLATVAYFNMVYMPASWVMRIMTWLDMVDTSLSGFKLKDCVMYASAVVLLILMTARTVYDDGARRVWTLMNVLTLVYKVYYGNALDQAISMWALIISVTSNYSGVVTTVMFLARGIVFMCVEYCPIFFITGNTLQCIMLVYCFLGYFCTCYFGLFCLLNRYFRLTLGVYDYLVSTQEFRYMNSQGLLPPKNSIDAFKLNIKLLGVGGKPCIKVATVQSKMSDVKCTSVVLLSVLQQLRVESSSKLWAQCVQLHNDILLAKDTTEAFEKMVSLLSVLLSMQGAVDINKLCEEMLDNRATLQAIASEFSSLPSYAAFATAQEAYEQAVANGDSEVVLKKLKKSLNVAKSEFDRDAAMQRKLEKMADQAMTQMYKQARSEDKRAKVTSAMQTMLFTMLRKLDNDALNNIINNARDGCVPLNIIPLTTAAKLMVVIPDYNTYKNTCDGTTFTYASALWEIQQVVDADSKIVQLSEISMDNSPNLAWPLIVTALRANSAVKLQNNELSPVALRQMSCAAGTTQTACTDDNALAYYNTTKGGRFVLALLSDLQDLKWARFPKSDGTGTIYTELEPPCRFVTDTPKGPKVKYLYFIKGLNNLNRGMVLGSLAATVRLQAGNATEVPANSTVLSFCAFAVDAAKAYKDYLASGGQPITNCVKMLCTHTGTGQAITVTPEANMDQESFGGASCCLYCRCHIDHPNPKGFCDLKGKYVQIPTTCANDPVGFTLKNTVCTVCGMWKGYGCSCDQLREPMLQSADAQSFLNRVCGVSAARLTPCGTGTSTDVVYRAFDIYNDKVAGFAKFLKTNCCRFQEKDEDDNLIDSYFVVKRHTFSNYQHEETIYNLLKDCPAVAKHDFFKFRIDGDMVPHISRQRLTKYTMADLVYALRHFDEGNCDTLKEILVTYNCCDDDYFNKKDWYDFVENPDILRVYANLGERVRQALLKTVQFCDAMRNAGIVGVLTLDNQDLNGNWYDFGDFIQTTPGSGVPVVDSYYSLLMPILTLTRALTAESHVDTDLTKPYIKWDLLKYDFTEERLKLFDRYFKYWDQTYHPNCVNCLDDRCILHCANFNVLFSTVFPPTSFGPLVRKIFVDGVPFVVSTGYHFRELGVVHNQDVNLHSSRLSFKELLVYAADPAMHAASGNLLLDKRTTCFSVAALTNNVAFQTVKPGNFNKDFYDFAVSKGFFKEGSSVELKHFFFAQDGNAAISDYDYYRYNLPTMCDIRQLLFVVEVVDKYFDCYDGGCINANQVIVNNLDKSAGFPFNKWGKARLYYDSMSYEDQDALFAYTKRNVIPTITQMNLKYAISAKNRARTVAGVSICSTMTNRQFHQKLLKSIAATRGATVVIGTSKFYGGWHNMLKTVYSDVENPHLMGWDYPKCDRAMPNMLRIMASLVLARKHTTCCSLSHRFYRLANECAQVLSEMVMCGGSLYVKPGGTSSGDATTAYANSVFNICQAVTANVNALLSTDGNKIADKYVRNLQHRLYECLYRNRDVDTDFVNEFYAYLRKHFSMMILSDDAVVCFNSTYASQGLVASIKNFKSVLYYQNNVFMSEAKCWTETDLTKGPHEFCSQHTMLVKQGDDYVYLPYPDPSRILGAGCFVDDIVKTDGTLMIERFVSLAIDAYPLTKHPNQEYADVFHLYLQYIRKLHDELTGHMLDMYSVMLTNDNTSRYWEPEFYEAMYTPHTVLQAVGACVLCNSQTSLRCGACIRRPFLCCKCCYDHVISTSHKLVLSVNPYVCNAPGCDVTDVTQLYLGGMSYYCKSHKPPISFPLCANGQVFGLYKNTCVGSDNVTDFNAIATCDWTNAGDYILANTCTERLKLFAAETLKATEETFKLSYGIATVREVLSDRELHLSWEVGKPRPPLNRNYVFTGYRVTKNSKVQIGEYTFEKGDYGDAVVYRGTTTYKLNVGDYFVLTSHTVMPLSAPTLVPQEHYVRITGLYPTLNISDEFSSNVANYQKVGMQKYSTLQGPPGTGKSHFAIGLALYYPSARIVYTACSHAAVDALCEKALKYLPIDKCSRIIPARARVECFDKFKVNSTLEQYVFCTVNALPETTADIVVFDEISMATNYDLSVVNARLRAKHYVYIGDPAQLPAPRTLLTKGTLEPEYFNSVCRLMKTIGPDMFLGTCRRCPAEIVDTVSALVYDNKLKAHKDKSAQCFKMFYKGVITHDVSSAINRPQIGVVREFLTRNPAWRKAVFISPYNSQNAVASKILGLPTQTVDSSQGSEYDYVIFTQTTETAHSCNVNRFNVAITRAKVGILCIMSDRDLYDKLQFTSLEIPRRNVATLQAENVTGLFKDCSKVITGLHPTQAPTHLSVDTKFKTEGLCVDIPGIPKDMTYRRLISMMGFKMNYQVNGYPNMFITREEAIRHVRAWIGFDVEGCHATREAVGTNLPLQLGFSTGVNLVAVPTGYVDTPNNTDFSRVSAKPPPGDQFKHLIPLMYKGLPWNVVRIKIVQMLSDTLKNLSDRVVFVLWAHGFELTSMKYFVKIGPERTCCLCDRRATCFSTASDTYACWHHSIGFDYVYNPFMIDVQQWGFTGNLQSNHDLYCQVHGNAHVASCDAIMTRCLAVHECFVKRVDWTIEYPIIGDELKINAACRKVQHMVVKAALLADKFPVLHDIGNPKAIKCVPQADVEWKFYDAQPCSDKAYKIEELFYSYATHSDKFTDGVCLFWNCNVDRYPANSIVCRFDTRVLSNLNLPGCDGGSLYVNKHAFHTPAFDKSAFVNLKQLPFFYYSDSPCESHGKQVVSDIDYVPLKSATCITRCNLGGAVCRHHANEYRLYLDAYNMMISAGFSLWVYKQFDTYNLWNTFTRLQSLENVAFNVVNKGHFDGQQGEVPVSIINNTVYTKVDGVDVELFENKTTLPVNVAFELWAKRNIKPVPEVKILNNLGVDIAANTVIWDYKRDAPAHISTIGVCSMTDIAKKPTETICAPLTVFFDGRVDGQVDLFRNARNGVLITEGSVKGLQPSVGPKQASLNGVTLIGEAVKTQFNYYKKVDGVVQQLPETYFTQSRNLQEFKPRSQMEIDFLELAMDEFIERYKLEGYAFEHIVYGDFSHSQLGGLHLLIGLAKRFKESPFELEDFIPMDSTVKNYFITDAQTGSSKCVCSVIDLLLDDFVEIIKSQDLSVVSKVVKVTIDYTEISFMLWCKDGHVETFYPKLQSSQAWQPGVAMPNLYKMQRMLLEKCDLQNYGDSATLPKGIMMNVAKYTQLCQYLNTLTLAVPYNMRVIHFGAGSDKGVAPGTAVLRQWLPTGTLLVDSDLNDFVSDADSTLIGDCATVHTANKWDLIISDMYDPKTKNVTKENDSKEGFFTYICGFIQQKLALGGSVAIKITEHSWNADLYKLMGHFAWWTAFVTNVNASSSEAFLIGCNYLGKPREQIDGYVMHANYIFWRNTNPIQLSSYSLFDMSKFPLKLRGTAVMSLKEGQINDMILSLLSKGRLIIRENNRVVISSDVLVNN

> <PDB ID(s) of Target Chain>
8YB7,8YB5,8YAX,7O81,7O80,7O7Z,7O7Y,7OYG,7B3D,7B3C,7B3B,6YYT,9UHT,9L09,9IMM,9IMK,9I81,9DJ8,8SQJ,8SQ9,8GY6,8GWO,8GWN,8GWM,8GWK,8GWI,8GWG,8GWF,8GWE,8GWB,7UOE,7UOB,7UO9,7UO7,7UO4,7THM,7RE3,7RE2,7RE1,7RE0,7RDZ,7RDY,7RDX,7OZV,7OZU,7KRP,7KRO,7KRN,7EGQ,7CTT,6XEZ,6XQB,8XCH,7CYQ,7BZF,7BTF,6M71,9IKZ,7ED5,7AAP,8GW1,7CXN,7CXM,8SQK,7EIZ,9SAR,9SAP,7BW4,7L1F,7MSX,7MSW,7NNG,5ROB,5RMM,5RML,5RMK,5RMJ,5RMI,5RMH,5RMG,5RMF,5RME,5RMD,5RMC,5RMB,5RMA,5RM9,5RM8,5RM7,5RM6,5RM5,5RM4,5RM3,5RM2,5RM1,5RM0,5RLZ,5RLY,5RLW,5RLV,5RLU,5RLT,5RLS,5RLR,5RLQ,5RLP,5RLO,5RLN,5RLM,5RLL,5RLK,5RLJ,5RLI,5RLH,5RLG,5RLF,5RLE,5RLD,5RLC,5RLB,5RL9,5RL8,5RL7,5RL6,9I53,9I51,9I4V,9I1S,7NN0,7NIO,6ZSL,9VCL,7N0B,9S2V,9R5T,8R7B,9VCK,9NJG,9NIO,9NHU,9NHA,9NFP,9NAZ,7QIF,7QGI,5SMK,5SMI,5SMH,5SMG,5SMF,5SME,5SMD,5SMC,5SMB,5SMA,5SM9,5SM8,5SM7,5SM6,5SM5,5SM4,5SM3,5SM2,5SM1,5SM0,5SLZ,5SLY,5SLX,5SLW,5SLV,5SLU,5SLT,5SLS,5SLR,5SLQ,5SLP,5SLO,5SLN,5SLM,5SLL,5SLK,5SLJ,5SLI,5SLH,5SLG,5SLF,5SLE,5SLD,5SLC,5SLB,5SLA,5SL9,5SL8,5SL7,5SL6,5SL5,5SL4,5SL3,5SL2,5SL1,5SL0,5SKZ,5SKY,5SKX,5SKW,8EIR,7K0R,7RB2,7RB0,7N83,7N7Y,7N7W,7N7U,7N7R,7KF4,7KEH,7KEG,5SBF,5SAI

> <UniProt (SwissProt) Recommended Name of Target Chain>
Replicase polyprotein 1ab

> <UniProt (SwissProt) Entry Name of Target Chain>
R1AB_SARS2

> <UniProt (SwissProt) Primary ID of Target Chain>
P0DTD1

> <UniProt (SwissProt) Secondary ID(s) of Target Chain>


> <UniProt (SwissProt) Alternative ID(s) of Target Chain>


> <UniProt (TrEMBL) Submitted Name of Target Chain>


> <UniProt (TrEMBL) Entry Name of Target Chain>


> <UniProt (TrEMBL) Primary ID of Target Chain>


> <UniProt (TrEMBL) Secondary ID(s) of Target Chain>


> <UniProt (TrEMBL) Alternative ID(s) of Target Chain>


$$$$

JME 2024-04-29 Tue Aug 26 14:57:39 GMT-700 2025

 38 43  0  0  0  0  0  0  0  0999 V2000
    4.8497    7.1239    0.0000 C   0  0  0  0  0  0  0  0  0  0  0  0
    3.7171    6.3010    0.0000 C   0  0  0  0  0  0  0  0  0  0  0  0
    4.1497    4.9695    0.0000 N   0  0  0  0  0  0  0  0  0  0  0  0
    5.5497    4.9695    0.0000 C   0  0  0  0  0  0  0  0  0  0  0  0
    5.9824    6.3010    0.0000 C   0  0  0  0  0  0  0  0  0  0  0  0
    6.0622    7.8239    0.0000 C   0  0  0  0  0  0  0  0  0  0  0  0
    6.0622    9.2239    0.0000 N   0  0  0  0  0  0  0  0  0  0  0  0
    4.8497    9.9239    0.0000 C   0  0  0  0  0  0  0  0  0  0  0  0
    3.6373    9.2239    0.0000 C   0  0  0  0  0  0  0  0  0  0  0  0
    3.6373    7.8239    0.0000 C   0  0  0  0  0  0  0  0  0  0  0  0
    2.4249    9.9239    0.0000 C   0  0  0  0  0  0  0  0  0  0  0  0
    1.2124    9.2239    0.0000 C   0  0  0  0  0  0  0  0  0  0  0  0
    1.2124    7.8239    0.0000 C   0  0  0  0  0  0  0  0  0  0  0  0
    2.4249    7.1239    0.0000 C   0  0  0  0  0  0  0  0  0  0  0  0
    4.8497   11.3239    0.0000 O   0  0  0  0  0  0  0  0  0  0  0  0
    7.2746    9.9239    0.0000 C   0  0  0  0  0  0  0  0  0  0  0  0
    0.0000    7.1239    0.0000 Cl  0  0  0  0  0  0  0  0  0  0  0  0
    3.3268    3.8369    0.0000 C   0  0  0  0  0  0  0  0  0  0  0  0
    1.9345    3.9832    0.0000 C   0  0  0  0  0  0  0  0  0  0  0  0
    1.1116    2.8506    0.0000 N   0  0  0  0  0  0  0  0  0  0  0  0
    1.6810    1.5716    0.0000 C   0  0  0  0  0  0  0  0  0  0  0  0
    3.0734    1.4253    0.0000 C   0  0  0  0  0  0  0  0  0  0  0  0
    3.8963    2.5579    0.0000 C   0  0  0  0  0  0  0  0  0  0  0  0
    3.6428    0.1463    0.0000 C   0  0  0  0  0  0  0  0  0  0  0  0
    5.0351    0.0000    0.0000 C   0  0  0  0  0  0  0  0  0  0  0  0
    5.8580    1.1326    0.0000 C   0  0  0  0  0  0  0  0  0  0  0  0
    5.2886    2.4116    0.0000 C   0  0  0  0  0  0  0  0  0  0  0  0
    2.3205    6.2039    0.0000 O   0  0  0  0  0  0  0  0  0  0  0  0
    7.3138    6.7336    0.0000 C   0  0  0  0  0  0  0  0  0  0  0  0
    8.3542    5.7968    0.0000 N   0  0  0  0  0  0  0  0  0  0  0  0
    8.0632    4.4274    0.0000 C   0  0  0  0  0  0  0  0  0  0  0  0
    9.1036    3.4906    0.0000 C   0  0  0  0  0  0  0  0  0  0  0  0
    8.4871    9.2239    0.0000 C   0  0  0  0  0  0  0  0  0  0  0  0
    8.4871    7.8239    0.0000 C   0  0  0  0  0  0  0  0  0  0  0  0
    9.6995    7.1239    0.0000 C   0  0  0  0  0  0  0  0  0  0  0  0
   10.9119    7.8240    0.0000 O   0  0  0  0  0  0  0  0  0  0  0  0
   10.9119    9.2240    0.0000 C   0  0  0  0  0  0  0  0  0  0  0  0
    9.6995    9.9239    0.0000 C   0  0  0  0  0  0  0  0  0  0  0  0
  2  3  1  0  0  0  0
  3  4  1  0  0  0  0
  4  5  1  0  0  0  0
  1  5  1  0  0  0  0
  1  2  1  1  0  0  0
  6  7  1  0  0  0  0
  7  8  1  0  0  0  0
  8  9  1  0  0  0  0
  9 10  1  0  0  0  0
 11 12  1  0  0  0  0
 12 13  2  0  0  0  0
 13 14  1  0  0  0  0
 10 14  2  0  0  0  0
  9 11  2  0  0  0  0
  8 15  2  0  0  0  0
  7 16  1  0  0  0  0
  1 10  1  0  0  0  0
 13 17  1  0  0  0  0
  3 18  1  0  0  0  0
 19 20  1  0  0  0  0
 20 21  2  0  0  0  0
 21 22  1  0  0  0  0
 22 23  2  0  0  0  0
 18 23  1  0  0  0  0
 18 19  2  0  0  0  0
 24 25  2  0  0  0  0
 25 26  1  0  0  0  0
 26 27  2  0  0  0  0
 23 27  1  0  0  0  0
 22 24  1  0  0  0  0
  2 28  2  0  0  0  0
  5 29  1  1  0  0  0
 29 30  1  0  0  0  0
 30 31  1  0  0  0  0
 31 32  1  0  0  0  0
 16 33  1  0  0  0  0
 34 35  1  0  0  0  0
 35 36  1  0  0  0  0
 36 37  1  0  0  0  0
 37 38  1  0  0  0  0
 33 38  1  0  0  0  0
 33 34  1  0  0  0  0
  1  6  1  0  0  0  0
M  END
> <From>
www.bindingDB.org

> <BindingDB Reactant_set_id>
1515157

> <Ligand InChI>


> <Ligand InChI Key>


> <BindingDB MonomerID>
736195

> <BindingDB Ligand Name>
(4S,4'S)-6-chloro-4,-[(ethylamino)methyl]-1,-(4-isoquinolyl)-2-[(tetrahydropyran-4-ylmethyl)]spiro[3H-isoquinoUne-4,3'-pyrrolidine]-1,2,-dione::WO2025125695, Example 3

> <Target Name>
Replicase polyprotein 1ab

> <Target Source Organism According to Curator or DataSource>
Severe acute respiratory syndrome coronavirus 2

> <Ki (nM)>


> <IC50 (nM)>
 1

> <Kd (nM)>


> <EC50 (nM)>


> <kon (M-1-s-1)>


> <koff (s-1)>


> <pH>


> <Temp C>


> <Curation/DataSource>
WIPO

> <Article DOI>


> <BindingDB Entry DOI>
10.7270/Q2805754

> <PMID>


> <PubChem AID>


> <Patent Number>
WO2025125695

> <Authors>
GRIFFEN, EJ; COUSINS, DL; STACEY-JEPSON, JE; LEFKER, BA; ROBINSON, RP

> <Date of publication>
4/23/2025

> <Date in BindingDB>
8/28/2025

> <Institution>
Medchemica

> <Link to Ligand in BindingDB>
http://www.bindingdb.org/bind/chemsearch/marvin/MolStructure.jsp?monomerid=736195

> <Link to Ligand-Target Pair in BindingDB>
http://www.bindingdb.org/rwd/jsp/dbsearch/PrimarySearch_ki.jsp?energyterm=kJ/mole&tag=pol&polymerid=770&target=Replicase+polyprotein+1ab&column=ki&startPg=0&Increment=50&submit=Search

> <Link to Ligand-Target Pair in BindingDB>
http://www.bindingdb.org/rwd/jsp/dbsearch/PrimarySearch_ki.jsp?energyterm=kJ/mole&tag=r21&monomerid=736195&enzyme=Replicase+polyprotein+1ab&column=ki&startPg=0&Increment=50&submit=Search

> <Ligand HET ID in PDB>


> <PDB ID(s) for Ligand-Target Complex>


> <PubChem CID of Ligand>
176394934

> <PubChem SID of Ligand>
518296818

> <ChEBI ID of Ligand>


> <ChEMBL ID of Ligand>


> <DrugBank ID of Ligand>


> <IUPHAR_GRAC ID of Ligand>


> <KEGG ID of Ligand>


> <ZINC ID of Ligand>


> <Number of Protein Chains in Target (bigger than 1 implies a multichain complex)>
1

> <BindingDB Target Chain Sequence>
MESLVPGFNEKTHVQLSLPVLQVRDVLVRGFGDSVEEVLSEARQHLKDGTCGLVEVEKGVLPQLEQPYVFIKRSDARTAPHGHVMVELVAELEGIQYGRSGETLGVLVPHVGEIPVAYRKVLLRKNGNKGAGGHSYGADLKSFDLGDELGTDPYEDFQENWNTKHSSGVTRELMRELNGGAYTRYVDNNFCGPDGYPLECIKDLLARAGKASCTLSEQLDFIDTKRGVYCCREHEHEIAWYTERSEKSYELQTPFEIKLAKKFDTFNGECPNFVFPLNSIIKTIQPRVEKKKLDGFMGRIRSVYPVASPNECNQMCLSTLMKCDHCGETSWQTGDFVKATCEFCGTENLTKEGATTCGYLPQNAVVKIYCPACHNSEVGPEHSLAEYHNESGLKTILRKGGRTIAFGGCVFSYVGCHNKCAYWVPRASANIGCNHTGVVGEGSEGLNDNLLEILQKEKVNINIVGDFKLNEEIAIILASFSASTSAFVETVKGLDYKAFKQIVESCGNFKVTKGKAKKGAWNIGEQKSILSPLYAFASEAARVVRSIFSRTLETAQNSVRVLQKAAITILDGISQYSLRLIDAMMFTSDLATNNLVVMAYITGGVVQLTSQWLTNIFGTVYEKLKPVLDWLEEKFKEGVEFLRDGWEIVKFISTCACEIVGGQIVTCAKEIKESVQTFFKLVNKFLALCADSIIIGGAKLKALNLGETFVTHSKGLYRKCVKSREETGLLMPLKAPKEIIFLEGETLPTEVLTEEVVLKTGDLQPLEQPTSEAVEAPLVGTPVCINGLMLLEIKDTEKYCALAPNMMVTNNTFTLKGGAPTKVTFGDDTVIEVQGYKSVNITFELDERIDKVLNEKCSAYTVELGTEVNEFACVVADAVIKTLQPVSELLTPLGIDLDEWSMATYYLFDESGEFKLASHMYCSFYPPDEDEEEGDCEEEEFEPSTQYEYGTEDDYQGKPLEFGATSAALQPEEEQEEDWLDDDSQQTVGQQDGSEDNQTTTIQTIVEVQPQLEMELTPVVQTIEVNSFSGYLKLTDNVYIKNADIVEEAKKVKPTVVVNAANVYLKHGGGVAGALNKATNNAMQVESDDYIATNGPLKVGGSCVLSGHNLAKHCLHVVGPNVNKGEDIQLLKSAYENFNQHEVLLAPLLSAGIFGADPIHSLRVCVDTVRTNVYLAVFDKNLYDKLVSSFLEMKSEKQVEQKIAEIPKEEVKPFITESKPSVEQRKQDDKKIKACVEEVTTTLEETKFLTENLLLYIDINGNLHPDSATLVSDIDITFLKKDAPYIVGDVVQEGVLTAVVIPTKKAGGTTEMLAKALRKVPTDNYITTYPGQGLNGYTVEEAKTVLKKCKSAFYILPSIISNEKQEILGTVSWNLREMLAHAEETRKLMPVCVETKAIVSTIQRKYKGIKIQEGVVDYGARFYFYTSKTTVASLINTLNDLNETLVTMPLGYVTHGLNLEEAARYMRSLKVPATVSVSSPDAVTAYNGYLTSSSKTPEEHFIETISLAGSYKDWSYSGQSTQLGIEFLKRGDKSVYYTSNPTTFHLDGEVITFDNLKTLLSLREVRTIKVFTTVDNINLHTQVVDMSMTYGQQFGPTYLDGADVTKIKPHNSHEGKTFYVLPNDDTLRVEAFEYYHTTDPSFLGRYMSALNHTKKWKYPQVNGLTSIKWADNNCYLATALLTLQQIELKFNPPALQDAYYRARAGEAANFCALILAYCNKTVGELGDVRETMSYLFQHANLDSCKRVLNVVCKTCGQQQTTLKGVEAVMYMGTLSYEQFKKGVQIPCTCGKQATKYLVQQESPFVMMSAPPAQYELKHGTFTCASEYTGNYQCGHYKHITSKETLYCIDGALLTKSSEYKGPITDVFYKENSYTTTIKPVTYKLDGVVCTEIDPKLDNYYKKDNSYFTEQPIDLVPNQPYPNASFDNFKFVCDNIKFADDLNQLTGYKKPASRELKVTFFPDLNGDVVAIDYKHYTPSFKKGAKLLHKPIVWHVNNATNKATYKPNTWCIRCLWSTKPVETSNSFDVLKSEDAQGMDNLACEDLKPVSEEVVENPTIQKDVLECNVKTTEVVGDIILKPANNSLKITEEVGHTDLMAAYVDNSSLTIKKPNELSRVLGLKTLATHGLAAVNSVPWDTIANYAKPFLNKVVSTTTNIVTRCLNRVCTNYMPYFFTLLLQLCTFTRSTNSRIKASMPTTIAKNTVKSVGKFCLEASFNYLKSPNFSKLINIIIWFLLLSVCLGSLIYSTAALGVLMSNLGMPSYCTGYREGYLNSTNVTIATYCTGSIPCSVCLSGLDSLDTYPSLETIQITISSFKWDLTAFGLVAEWFLAYILFTRFFYVLGLAAIMQLFFSYFAVHFISNSWLMWLIINLVQMAPISAMVRMYIFFASFYYVWKSYVHVVDGCNSSTCMMCYKRNRATRVECTTIVNGVRRSFYVYANGGKGFCKLHNWNCVNCDTFCAGSTFISDEVARDLSLQFKRPINPTDQSSYIVDSVTVKNGSIHLYFDKAGQKTYERHSLSHFVNLDNLRANNTKGSLPINVIVFDGKSKCEESSAKSASVYYSQLMCQPILLLDQALVSDVGDSAEVAVKMFDAYVNTFSSTFNVPMEKLKTLVATAEAELAKNVSLDNVLSTFISAARQGFVDSDVETKDVVECLKLSHQSDIEVTGDSCNNYMLTYNKVENMTPRDLGACIDCSARHINAQVAKSHNIALIWNVKDFMSLSEQLRKQIRSAAKKNNLPFKLTCATTRQVVNVVTTKIALKGGKIVNNWLKQLIKVTLVFLFVAAIFYLITPVHVMSKHTDFSSEIIGYKAIDGGVTRDIASTDTCFANKHADFDTWFSQRGGSYTNDKACPLIAAVITREVGFVVPGLPGTILRTTNGDFLHFLPRVFSAVGNICYTPSKLIEYTDFATSACVLAAECTIFKDASGKPVPYCYDTNVLEGSVAYESLRPDTRYVLMDGSIIQFPNTYLEGSVRVVTTFDSEYCRHGTCERSEAGVCVSTSGRWVLNNDYYRSLPGVFCGVDAVNLLTNMFTPLIQPIGALDISASIVAGGIVAIVVTCLAYYFMRFRRAFGEYSHVVAFNTLLFLMSFTVLCLTPVYSFLPGVYSVIYLYLTFYLTNDVSFLAHIQWMVMFTPLVPFWITIAYIICISTKHFYWFFSNYLKRRVVFNGVSFSTFEEAALCTFLLNKEMYLKLRSDVLLPLTQYNRYLALYNKYKYFSGAMDTTSYREAACCHLAKALNDFSNSGSDVLYQPPQTSITSAVLQSGFRKMAFPSGKVEGCMVQVTCGTTTLNGLWLDDVVYCPRHVICTSEDMLNPNYEDLLIRKSNHNFLVQAGNVQLRVIGHSMQNCVLKLKVDTANPKTPKYKFVRIQPGQTFSVLACYNGSPSGVYQCAMRPNFTIKGSFLNGSCGSVGFNIDYDCVSFCYMHHMELPTGVHAGTDLEGNFYGPFVDRQTAQAAGTDTTITVNVLAWLYAAVINGDRWFLNRFTTTLNDFNLVAMKYNYEPLTQDHVDILGPLSAQTGIAVLDMCASLKELLQNGMNGRTILGSALLEDEFTPFDVVRQCSGVTFQSAVKRTIKGTHHWLLLTILTSLLVLVQSTQWSLFFFLYENAFLPFAMGIIAMSAFAMMFVKHKHAFLCLFLLPSLATVAYFNMVYMPASWVMRIMTWLDMVDTSLSGFKLKDCVMYASAVVLLILMTARTVYDDGARRVWTLMNVLTLVYKVYYGNALDQAISMWALIISVTSNYSGVVTTVMFLARGIVFMCVEYCPIFFITGNTLQCIMLVYCFLGYFCTCYFGLFCLLNRYFRLTLGVYDYLVSTQEFRYMNSQGLLPPKNSIDAFKLNIKLLGVGGKPCIKVATVQSKMSDVKCTSVVLLSVLQQLRVESSSKLWAQCVQLHNDILLAKDTTEAFEKMVSLLSVLLSMQGAVDINKLCEEMLDNRATLQAIASEFSSLPSYAAFATAQEAYEQAVANGDSEVVLKKLKKSLNVAKSEFDRDAAMQRKLEKMADQAMTQMYKQARSEDKRAKVTSAMQTMLFTMLRKLDNDALNNIINNARDGCVPLNIIPLTTAAKLMVVIPDYNTYKNTCDGTTFTYASALWEIQQVVDADSKIVQLSEISMDNSPNLAWPLIVTALRANSAVKLQNNELSPVALRQMSCAAGTTQTACTDDNALAYYNTTKGGRFVLALLSDLQDLKWARFPKSDGTGTIYTELEPPCRFVTDTPKGPKVKYLYFIKGLNNLNRGMVLGSLAATVRLQAGNATEVPANSTVLSFCAFAVDAAKAYKDYLASGGQPITNCVKMLCTHTGTGQAITVTPEANMDQESFGGASCCLYCRCHIDHPNPKGFCDLKGKYVQIPTTCANDPVGFTLKNTVCTVCGMWKGYGCSCDQLREPMLQSADAQSFLNRVCGVSAARLTPCGTGTSTDVVYRAFDIYNDKVAGFAKFLKTNCCRFQEKDEDDNLIDSYFVVKRHTFSNYQHEETIYNLLKDCPAVAKHDFFKFRIDGDMVPHISRQRLTKYTMADLVYALRHFDEGNCDTLKEILVTYNCCDDDYFNKKDWYDFVENPDILRVYANLGERVRQALLKTVQFCDAMRNAGIVGVLTLDNQDLNGNWYDFGDFIQTTPGSGVPVVDSYYSLLMPILTLTRALTAESHVDTDLTKPYIKWDLLKYDFTEERLKLFDRYFKYWDQTYHPNCVNCLDDRCILHCANFNVLFSTVFPPTSFGPLVRKIFVDGVPFVVSTGYHFRELGVVHNQDVNLHSSRLSFKELLVYAADPAMHAASGNLLLDKRTTCFSVAALTNNVAFQTVKPGNFNKDFYDFAVSKGFFKEGSSVELKHFFFAQDGNAAISDYDYYRYNLPTMCDIRQLLFVVEVVDKYFDCYDGGCINANQVIVNNLDKSAGFPFNKWGKARLYYDSMSYEDQDALFAYTKRNVIPTITQMNLKYAISAKNRARTVAGVSICSTMTNRQFHQKLLKSIAATRGATVVIGTSKFYGGWHNMLKTVYSDVENPHLMGWDYPKCDRAMPNMLRIMASLVLARKHTTCCSLSHRFYRLANECAQVLSEMVMCGGSLYVKPGGTSSGDATTAYANSVFNICQAVTANVNALLSTDGNKIADKYVRNLQHRLYECLYRNRDVDTDFVNEFYAYLRKHFSMMILSDDAVVCFNSTYASQGLVASIKNFKSVLYYQNNVFMSEAKCWTETDLTKGPHEFCSQHTMLVKQGDDYVYLPYPDPSRILGAGCFVDDIVKTDGTLMIERFVSLAIDAYPLTKHPNQEYADVFHLYLQYIRKLHDELTGHMLDMYSVMLTNDNTSRYWEPEFYEAMYTPHTVLQAVGACVLCNSQTSLRCGACIRRPFLCCKCCYDHVISTSHKLVLSVNPYVCNAPGCDVTDVTQLYLGGMSYYCKSHKPPISFPLCANGQVFGLYKNTCVGSDNVTDFNAIATCDWTNAGDYILANTCTERLKLFAAETLKATEETFKLSYGIATVREVLSDRELHLSWEVGKPRPPLNRNYVFTGYRVTKNSKVQIGEYTFEKGDYGDAVVYRGTTTYKLNVGDYFVLTSHTVMPLSAPTLVPQEHYVRITGLYPTLNISDEFSSNVANYQKVGMQKYSTLQGPPGTGKSHFAIGLALYYPSARIVYTACSHAAVDALCEKALKYLPIDKCSRIIPARARVECFDKFKVNSTLEQYVFCTVNALPETTADIVVFDEISMATNYDLSVVNARLRAKHYVYIGDPAQLPAPRTLLTKGTLEPEYFNSVCRLMKTIGPDMFLGTCRRCPAEIVDTVSALVYDNKLKAHKDKSAQCFKMFYKGVITHDVSSAINRPQIGVVREFLTRNPAWRKAVFISPYNSQNAVASKILGLPTQTVDSSQGSEYDYVIFTQTTETAHSCNVNRFNVAITRAKVGILCIMSDRDLYDKLQFTSLEIPRRNVATLQAENVTGLFKDCSKVITGLHPTQAPTHLSVDTKFKTEGLCVDIPGIPKDMTYRRLISMMGFKMNYQVNGYPNMFITREEAIRHVRAWIGFDVEGCHATREAVGTNLPLQLGFSTGVNLVAVPTGYVDTPNNTDFSRVSAKPPPGDQFKHLIPLMYKGLPWNVVRIKIVQMLSDTLKNLSDRVVFVLWAHGFELTSMKYFVKIGPERTCCLCDRRATCFSTASDTYACWHHSIGFDYVYNPFMIDVQQWGFTGNLQSNHDLYCQVHGNAHVASCDAIMTRCLAVHECFVKRVDWTIEYPIIGDELKINAACRKVQHMVVKAALLADKFPVLHDIGNPKAIKCVPQADVEWKFYDAQPCSDKAYKIEELFYSYATHSDKFTDGVCLFWNCNVDRYPANSIVCRFDTRVLSNLNLPGCDGGSLYVNKHAFHTPAFDKSAFVNLKQLPFFYYSDSPCESHGKQVVSDIDYVPLKSATCITRCNLGGAVCRHHANEYRLYLDAYNMMISAGFSLWVYKQFDTYNLWNTFTRLQSLENVAFNVVNKGHFDGQQGEVPVSIINNTVYTKVDGVDVELFENKTTLPVNVAFELWAKRNIKPVPEVKILNNLGVDIAANTVIWDYKRDAPAHISTIGVCSMTDIAKKPTETICAPLTVFFDGRVDGQVDLFRNARNGVLITEGSVKGLQPSVGPKQASLNGVTLIGEAVKTQFNYYKKVDGVVQQLPETYFTQSRNLQEFKPRSQMEIDFLELAMDEFIERYKLEGYAFEHIVYGDFSHSQLGGLHLLIGLAKRFKESPFELEDFIPMDSTVKNYFITDAQTGSSKCVCSVIDLLLDDFVEIIKSQDLSVVSKVVKVTIDYTEISFMLWCKDGHVETFYPKLQSSQAWQPGVAMPNLYKMQRMLLEKCDLQNYGDSATLPKGIMMNVAKYTQLCQYLNTLTLAVPYNMRVIHFGAGSDKGVAPGTAVLRQWLPTGTLLVDSDLNDFVSDADSTLIGDCATVHTANKWDLIISDMYDPKTKNVTKENDSKEGFFTYICGFIQQKLALGGSVAIKITEHSWNADLYKLMGHFAWWTAFVTNVNASSSEAFLIGCNYLGKPREQIDGYVMHANYIFWRNTNPIQLSSYSLFDMSKFPLKLRGTAVMSLKEGQINDMILSLLSKGRLIIRENNRVVISSDVLVNN

> <PDB ID(s) of Target Chain>
8YB7,8YB5,8YAX,7O81,7O80,7O7Z,7O7Y,7OYG,7B3D,7B3C,7B3B,6YYT,9UHT,9L09,9IMM,9IMK,9I81,9DJ8,8SQJ,8SQ9,8GY6,8GWO,8GWN,8GWM,8GWK,8GWI,8GWG,8GWF,8GWE,8GWB,7UOE,7UOB,7UO9,7UO7,7UO4,7THM,7RE3,7RE2,7RE1,7RE0,7RDZ,7RDY,7RDX,7OZV,7OZU,7KRP,7KRO,7KRN,7EGQ,7CTT,6XEZ,6XQB,8XCH,7CYQ,7BZF,7BTF,6M71,9IKZ,7ED5,7AAP,8GW1,7CXN,7CXM,8SQK,7EIZ,9SAR,9SAP,7BW4,7L1F,7MSX,7MSW,7NNG,5ROB,5RMM,5RML,5RMK,5RMJ,5RMI,5RMH,5RMG,5RMF,5RME,5RMD,5RMC,5RMB,5RMA,5RM9,5RM8,5RM7,5RM6,5RM5,5RM4,5RM3,5RM2,5RM1,5RM0,5RLZ,5RLY,5RLW,5RLV,5RLU,5RLT,5RLS,5RLR,5RLQ,5RLP,5RLO,5RLN,5RLM,5RLL,5RLK,5RLJ,5RLI,5RLH,5RLG,5RLF,5RLE,5RLD,5RLC,5RLB,5RL9,5RL8,5RL7,5RL6,9I53,9I51,9I4V,9I1S,7NN0,7NIO,6ZSL,9VCL,7N0B,9S2V,9R5T,8R7B,9VCK,9NJG,9NIO,9NHU,9NHA,9NFP,9NAZ,7QIF,7QGI,5SMK,5SMI,5SMH,5SMG,5SMF,5SME,5SMD,5SMC,5SMB,5SMA,5SM9,5SM8,5SM7,5SM6,5SM5,5SM4,5SM3,5SM2,5SM1,5SM0,5SLZ,5SLY,5SLX,5SLW,5SLV,5SLU,5SLT,5SLS,5SLR,5SLQ,5SLP,5SLO,5SLN,5SLM,5SLL,5SLK,5SLJ,5SLI,5SLH,5SLG,5SLF,5SLE,5SLD,5SLC,5SLB,5SLA,5SL9,5SL8,5SL7,5SL6,5SL5,5SL4,5SL3,5SL2,5SL1,5SL0,5SKZ,5SKY,5SKX,5SKW,8EIR,7K0R,7RB2,7RB0,7N83,7N7Y,7N7W,7N7U,7N7R,7KF4,7KEH,7KEG,5SBF,5SAI

> <UniProt (SwissProt) Recommended Name of Target Chain>
Replicase polyprotein 1ab

> <UniProt (SwissProt) Entry Name of Target Chain>
R1AB_SARS2

> <UniProt (SwissProt) Primary ID of Target Chain>
P0DTD1

> <UniProt (SwissProt) Secondary ID(s) of Target Chain>


> <UniProt (SwissProt) Alternative ID(s) of Target Chain>


> <UniProt (TrEMBL) Submitted Name of Target Chain>


> <UniProt (TrEMBL) Entry Name of Target Chain>


> <UniProt (TrEMBL) Primary ID of Target Chain>


> <UniProt (TrEMBL) Secondary ID(s) of Target Chain>


> <UniProt (TrEMBL) Alternative ID(s) of Target Chain>


$$$$

JME 2024-04-29 Tue Aug 26 14:55:24 GMT-700 2025

 39 44  0  0  0  0  0  0  0  0999 V2000
    4.8497    7.1239    0.0000 C   0  0  0  0  0  0  0  0  0  0  0  0
    3.7171    6.3010    0.0000 C   0  0  0  0  0  0  0  0  0  0  0  0
    4.1497    4.9695    0.0000 N   0  0  0  0  0  0  0  0  0  0  0  0
    5.5497    4.9695    0.0000 C   0  0  0  0  0  0  0  0  0  0  0  0
    5.9824    6.3010    0.0000 C   0  0  0  0  0  0  0  0  0  0  0  0
    6.0622    7.8239    0.0000 C   0  0  0  0  0  0  0  0  0  0  0  0
    6.0622    9.2239    0.0000 N   0  0  0  0  0  0  0  0  0  0  0  0
    4.8497    9.9239    0.0000 C   0  0  0  0  0  0  0  0  0  0  0  0
    3.6373    9.2239    0.0000 C   0  0  0  0  0  0  0  0  0  0  0  0
    3.6373    7.8239    0.0000 C   0  0  0  0  0  0  0  0  0  0  0  0
    2.4249    9.9239    0.0000 C   0  0  0  0  0  0  0  0  0  0  0  0
    1.2124    9.2239    0.0000 C   0  0  0  0  0  0  0  0  0  0  0  0
    1.2124    7.8239    0.0000 C   0  0  0  0  0  0  0  0  0  0  0  0
    2.4249    7.1239    0.0000 C   0  0  0  0  0  0  0  0  0  0  0  0
    4.8497   11.3239    0.0000 O   0  0  0  0  0  0  0  0  0  0  0  0
    7.2746    9.9239    0.0000 C   0  0  0  0  0  0  0  0  0  0  0  0
    0.0000    7.1239    0.0000 Cl  0  0  0  0  0  0  0  0  0  0  0  0
    3.3268    3.8369    0.0000 C   0  0  0  0  0  0  0  0  0  0  0  0
    1.9345    3.9832    0.0000 C   0  0  0  0  0  0  0  0  0  0  0  0
    1.1116    2.8506    0.0000 N   0  0  0  0  0  0  0  0  0  0  0  0
    1.6810    1.5716    0.0000 C   0  0  0  0  0  0  0  0  0  0  0  0
    3.0734    1.4253    0.0000 C   0  0  0  0  0  0  0  0  0  0  0  0
    3.8963    2.5579    0.0000 C   0  0  0  0  0  0  0  0  0  0  0  0
    3.6428    0.1463    0.0000 C   0  0  0  0  0  0  0  0  0  0  0  0
    5.0351    0.0000    0.0000 C   0  0  0  0  0  0  0  0  0  0  0  0
    5.8580    1.1326    0.0000 C   0  0  0  0  0  0  0  0  0  0  0  0
    5.2886    2.4116    0.0000 C   0  0  0  0  0  0  0  0  0  0  0  0
    2.3205    6.2039    0.0000 O   0  0  0  0  0  0  0  0  0  0  0  0
    7.3138    6.7336    0.0000 C   0  0  0  0  0  0  0  0  0  0  0  0
    8.3542    5.7968    0.0000 N   0  0  0  0  0  0  0  0  0  0  0  0
    8.0632    4.4274    0.0000 C   0  0  0  0  0  0  0  0  0  0  0  0
    9.1036    3.4906    0.0000 C   0  0  0  0  0  0  0  0  0  0  0  0
    8.4871    9.2239    0.0000 C   0  0  0  0  0  0  0  0  0  0  0  0
    8.4871    7.8239    0.0000 C   0  0  0  0  0  0  0  0  0  0  0  0
    9.6995    7.1239    0.0000 C   0  0  0  0  0  0  0  0  0  0  0  0
   10.9119    7.8240    0.0000 N   0  0  0  0  0  0  0  0  0  0  0  0
   10.9119    9.2240    0.0000 C   0  0  0  0  0  0  0  0  0  0  0  0
    9.6995    9.9239    0.0000 N   0  0  0  0  0  0  0  0  0  0  0  0
    9.6995    5.7239    0.0000 C   0  0  0  0  0  0  0  0  0  0  0  0
  2  3  1  0  0  0  0
  3  4  1  0  0  0  0
  4  5  1  0  0  0  0
  1  5  1  0  0  0  0
  1  2  1  1  0  0  0
  6  7  1  0  0  0  0
  7  8  1  0  0  0  0
  8  9  1  0  0  0  0
  9 10  1  0  0  0  0
 11 12  1  0  0  0  0
 12 13  2  0  0  0  0
 13 14  1  0  0  0  0
 10 14  2  0  0  0  0
  9 11  2  0  0  0  0
  8 15  2  0  0  0  0
  7 16  1  0  0  0  0
  1 10  1  0  0  0  0
 13 17  1  0  0  0  0
  3 18  1  0  0  0  0
 19 20  1  0  0  0  0
 20 21  2  0  0  0  0
 21 22  1  0  0  0  0
 22 23  2  0  0  0  0
 18 23  1  0  0  0  0
 18 19  2  0  0  0  0
 24 25  2  0  0  0  0
 25 26  1  0  0  0  0
 26 27  2  0  0  0  0
 23 27  1  0  0  0  0
 22 24  1  0  0  0  0
  2 28  2  0  0  0  0
  5 29  1  1  0  0  0
 29 30  1  0  0  0  0
 30 31  1  0  0  0  0
 31 32  1  0  0  0  0
 16 33  1  0  0  0  0
 34 35  2  0  0  0  0
 35 36  1  0  0  0  0
 36 37  2  0  0  0  0
 37 38  1  0  0  0  0
 33 38  2  0  0  0  0
 33 34  1  0  0  0  0
  1  6  1  0  0  0  0
 35 39  1  0  0  0  0
M  END
> <From>
www.bindingDB.org

> <BindingDB Reactant_set_id>
1515158

> <Ligand InChI>


> <Ligand InChI Key>


> <BindingDB MonomerID>
736196

> <BindingDB Ligand Name>
(4S,4'S)-6-chloro-4,-[(ethylamino)methyl]-1,-(4-isoquinolyl)-2-[(6-methylpyrimidin-4-yl)methyl]spiro[3H-isoquinoUne-4,3'-pyrrolidine]-1,2,-dione::WO2025125695, Example 4

> <Target Name>
Replicase polyprotein 1ab

> <Target Source Organism According to Curator or DataSource>
Severe acute respiratory syndrome coronavirus 2

> <Ki (nM)>


> <IC50 (nM)>
 1

> <Kd (nM)>


> <EC50 (nM)>


> <kon (M-1-s-1)>


> <koff (s-1)>


> <pH>


> <Temp C>


> <Curation/DataSource>
WIPO

> <Article DOI>


> <BindingDB Entry DOI>
10.7270/Q2805754

> <PMID>


> <PubChem AID>


> <Patent Number>
WO2025125695

> <Authors>
GRIFFEN, EJ; COUSINS, DL; STACEY-JEPSON, JE; LEFKER, BA; ROBINSON, RP

> <Date of publication>
4/23/2025

> <Date in BindingDB>
8/28/2025

> <Institution>
Medchemica

> <Link to Ligand in BindingDB>
http://www.bindingdb.org/bind/chemsearch/marvin/MolStructure.jsp?monomerid=736196

> <Link to Ligand-Target Pair in BindingDB>
http://www.bindingdb.org/rwd/jsp/dbsearch/PrimarySearch_ki.jsp?energyterm=kJ/mole&tag=pol&polymerid=770&target=Replicase+polyprotein+1ab&column=ki&startPg=0&Increment=50&submit=Search

> <Link to Ligand-Target Pair in BindingDB>
http://www.bindingdb.org/rwd/jsp/dbsearch/PrimarySearch_ki.jsp?energyterm=kJ/mole&tag=r21&monomerid=736196&enzyme=Replicase+polyprotein+1ab&column=ki&startPg=0&Increment=50&submit=Search

> <Ligand HET ID in PDB>


> <PDB ID(s) for Ligand-Target Complex>


> <PubChem CID of Ligand>
176394957

> <PubChem SID of Ligand>
518296819

> <ChEBI ID of Ligand>


> <ChEMBL ID of Ligand>


> <DrugBank ID of Ligand>


> <IUPHAR_GRAC ID of Ligand>


> <KEGG ID of Ligand>


> <ZINC ID of Ligand>


> <Number of Protein Chains in Target (bigger than 1 implies a multichain complex)>
1

> <BindingDB Target Chain Sequence>
MESLVPGFNEKTHVQLSLPVLQVRDVLVRGFGDSVEEVLSEARQHLKDGTCGLVEVEKGVLPQLEQPYVFIKRSDARTAPHGHVMVELVAELEGIQYGRSGETLGVLVPHVGEIPVAYRKVLLRKNGNKGAGGHSYGADLKSFDLGDELGTDPYEDFQENWNTKHSSGVTRELMRELNGGAYTRYVDNNFCGPDGYPLECIKDLLARAGKASCTLSEQLDFIDTKRGVYCCREHEHEIAWYTERSEKSYELQTPFEIKLAKKFDTFNGECPNFVFPLNSIIKTIQPRVEKKKLDGFMGRIRSVYPVASPNECNQMCLSTLMKCDHCGETSWQTGDFVKATCEFCGTENLTKEGATTCGYLPQNAVVKIYCPACHNSEVGPEHSLAEYHNESGLKTILRKGGRTIAFGGCVFSYVGCHNKCAYWVPRASANIGCNHTGVVGEGSEGLNDNLLEILQKEKVNINIVGDFKLNEEIAIILASFSASTSAFVETVKGLDYKAFKQIVESCGNFKVTKGKAKKGAWNIGEQKSILSPLYAFASEAARVVRSIFSRTLETAQNSVRVLQKAAITILDGISQYSLRLIDAMMFTSDLATNNLVVMAYITGGVVQLTSQWLTNIFGTVYEKLKPVLDWLEEKFKEGVEFLRDGWEIVKFISTCACEIVGGQIVTCAKEIKESVQTFFKLVNKFLALCADSIIIGGAKLKALNLGETFVTHSKGLYRKCVKSREETGLLMPLKAPKEIIFLEGETLPTEVLTEEVVLKTGDLQPLEQPTSEAVEAPLVGTPVCINGLMLLEIKDTEKYCALAPNMMVTNNTFTLKGGAPTKVTFGDDTVIEVQGYKSVNITFELDERIDKVLNEKCSAYTVELGTEVNEFACVVADAVIKTLQPVSELLTPLGIDLDEWSMATYYLFDESGEFKLASHMYCSFYPPDEDEEEGDCEEEEFEPSTQYEYGTEDDYQGKPLEFGATSAALQPEEEQEEDWLDDDSQQTVGQQDGSEDNQTTTIQTIVEVQPQLEMELTPVVQTIEVNSFSGYLKLTDNVYIKNADIVEEAKKVKPTVVVNAANVYLKHGGGVAGALNKATNNAMQVESDDYIATNGPLKVGGSCVLSGHNLAKHCLHVVGPNVNKGEDIQLLKSAYENFNQHEVLLAPLLSAGIFGADPIHSLRVCVDTVRTNVYLAVFDKNLYDKLVSSFLEMKSEKQVEQKIAEIPKEEVKPFITESKPSVEQRKQDDKKIKACVEEVTTTLEETKFLTENLLLYIDINGNLHPDSATLVSDIDITFLKKDAPYIVGDVVQEGVLTAVVIPTKKAGGTTEMLAKALRKVPTDNYITTYPGQGLNGYTVEEAKTVLKKCKSAFYILPSIISNEKQEILGTVSWNLREMLAHAEETRKLMPVCVETKAIVSTIQRKYKGIKIQEGVVDYGARFYFYTSKTTVASLINTLNDLNETLVTMPLGYVTHGLNLEEAARYMRSLKVPATVSVSSPDAVTAYNGYLTSSSKTPEEHFIETISLAGSYKDWSYSGQSTQLGIEFLKRGDKSVYYTSNPTTFHLDGEVITFDNLKTLLSLREVRTIKVFTTVDNINLHTQVVDMSMTYGQQFGPTYLDGADVTKIKPHNSHEGKTFYVLPNDDTLRVEAFEYYHTTDPSFLGRYMSALNHTKKWKYPQVNGLTSIKWADNNCYLATALLTLQQIELKFNPPALQDAYYRARAGEAANFCALILAYCNKTVGELGDVRETMSYLFQHANLDSCKRVLNVVCKTCGQQQTTLKGVEAVMYMGTLSYEQFKKGVQIPCTCGKQATKYLVQQESPFVMMSAPPAQYELKHGTFTCASEYTGNYQCGHYKHITSKETLYCIDGALLTKSSEYKGPITDVFYKENSYTTTIKPVTYKLDGVVCTEIDPKLDNYYKKDNSYFTEQPIDLVPNQPYPNASFDNFKFVCDNIKFADDLNQLTGYKKPASRELKVTFFPDLNGDVVAIDYKHYTPSFKKGAKLLHKPIVWHVNNATNKATYKPNTWCIRCLWSTKPVETSNSFDVLKSEDAQGMDNLACEDLKPVSEEVVENPTIQKDVLECNVKTTEVVGDIILKPANNSLKITEEVGHTDLMAAYVDNSSLTIKKPNELSRVLGLKTLATHGLAAVNSVPWDTIANYAKPFLNKVVSTTTNIVTRCLNRVCTNYMPYFFTLLLQLCTFTRSTNSRIKASMPTTIAKNTVKSVGKFCLEASFNYLKSPNFSKLINIIIWFLLLSVCLGSLIYSTAALGVLMSNLGMPSYCTGYREGYLNSTNVTIATYCTGSIPCSVCLSGLDSLDTYPSLETIQITISSFKWDLTAFGLVAEWFLAYILFTRFFYVLGLAAIMQLFFSYFAVHFISNSWLMWLIINLVQMAPISAMVRMYIFFASFYYVWKSYVHVVDGCNSSTCMMCYKRNRATRVECTTIVNGVRRSFYVYANGGKGFCKLHNWNCVNCDTFCAGSTFISDEVARDLSLQFKRPINPTDQSSYIVDSVTVKNGSIHLYFDKAGQKTYERHSLSHFVNLDNLRANNTKGSLPINVIVFDGKSKCEESSAKSASVYYSQLMCQPILLLDQALVSDVGDSAEVAVKMFDAYVNTFSSTFNVPMEKLKTLVATAEAELAKNVSLDNVLSTFISAARQGFVDSDVETKDVVECLKLSHQSDIEVTGDSCNNYMLTYNKVENMTPRDLGACIDCSARHINAQVAKSHNIALIWNVKDFMSLSEQLRKQIRSAAKKNNLPFKLTCATTRQVVNVVTTKIALKGGKIVNNWLKQLIKVTLVFLFVAAIFYLITPVHVMSKHTDFSSEIIGYKAIDGGVTRDIASTDTCFANKHADFDTWFSQRGGSYTNDKACPLIAAVITREVGFVVPGLPGTILRTTNGDFLHFLPRVFSAVGNICYTPSKLIEYTDFATSACVLAAECTIFKDASGKPVPYCYDTNVLEGSVAYESLRPDTRYVLMDGSIIQFPNTYLEGSVRVVTTFDSEYCRHGTCERSEAGVCVSTSGRWVLNNDYYRSLPGVFCGVDAVNLLTNMFTPLIQPIGALDISASIVAGGIVAIVVTCLAYYFMRFRRAFGEYSHVVAFNTLLFLMSFTVLCLTPVYSFLPGVYSVIYLYLTFYLTNDVSFLAHIQWMVMFTPLVPFWITIAYIICISTKHFYWFFSNYLKRRVVFNGVSFSTFEEAALCTFLLNKEMYLKLRSDVLLPLTQYNRYLALYNKYKYFSGAMDTTSYREAACCHLAKALNDFSNSGSDVLYQPPQTSITSAVLQSGFRKMAFPSGKVEGCMVQVTCGTTTLNGLWLDDVVYCPRHVICTSEDMLNPNYEDLLIRKSNHNFLVQAGNVQLRVIGHSMQNCVLKLKVDTANPKTPKYKFVRIQPGQTFSVLACYNGSPSGVYQCAMRPNFTIKGSFLNGSCGSVGFNIDYDCVSFCYMHHMELPTGVHAGTDLEGNFYGPFVDRQTAQAAGTDTTITVNVLAWLYAAVINGDRWFLNRFTTTLNDFNLVAMKYNYEPLTQDHVDILGPLSAQTGIAVLDMCASLKELLQNGMNGRTILGSALLEDEFTPFDVVRQCSGVTFQSAVKRTIKGTHHWLLLTILTSLLVLVQSTQWSLFFFLYENAFLPFAMGIIAMSAFAMMFVKHKHAFLCLFLLPSLATVAYFNMVYMPASWVMRIMTWLDMVDTSLSGFKLKDCVMYASAVVLLILMTARTVYDDGARRVWTLMNVLTLVYKVYYGNALDQAISMWALIISVTSNYSGVVTTVMFLARGIVFMCVEYCPIFFITGNTLQCIMLVYCFLGYFCTCYFGLFCLLNRYFRLTLGVYDYLVSTQEFRYMNSQGLLPPKNSIDAFKLNIKLLGVGGKPCIKVATVQSKMSDVKCTSVVLLSVLQQLRVESSSKLWAQCVQLHNDILLAKDTTEAFEKMVSLLSVLLSMQGAVDINKLCEEMLDNRATLQAIASEFSSLPSYAAFATAQEAYEQAVANGDSEVVLKKLKKSLNVAKSEFDRDAAMQRKLEKMADQAMTQMYKQARSEDKRAKVTSAMQTMLFTMLRKLDNDALNNIINNARDGCVPLNIIPLTTAAKLMVVIPDYNTYKNTCDGTTFTYASALWEIQQVVDADSKIVQLSEISMDNSPNLAWPLIVTALRANSAVKLQNNELSPVALRQMSCAAGTTQTACTDDNALAYYNTTKGGRFVLALLSDLQDLKWARFPKSDGTGTIYTELEPPCRFVTDTPKGPKVKYLYFIKGLNNLNRGMVLGSLAATVRLQAGNATEVPANSTVLSFCAFAVDAAKAYKDYLASGGQPITNCVKMLCTHTGTGQAITVTPEANMDQESFGGASCCLYCRCHIDHPNPKGFCDLKGKYVQIPTTCANDPVGFTLKNTVCTVCGMWKGYGCSCDQLREPMLQSADAQSFLNRVCGVSAARLTPCGTGTSTDVVYRAFDIYNDKVAGFAKFLKTNCCRFQEKDEDDNLIDSYFVVKRHTFSNYQHEETIYNLLKDCPAVAKHDFFKFRIDGDMVPHISRQRLTKYTMADLVYALRHFDEGNCDTLKEILVTYNCCDDDYFNKKDWYDFVENPDILRVYANLGERVRQALLKTVQFCDAMRNAGIVGVLTLDNQDLNGNWYDFGDFIQTTPGSGVPVVDSYYSLLMPILTLTRALTAESHVDTDLTKPYIKWDLLKYDFTEERLKLFDRYFKYWDQTYHPNCVNCLDDRCILHCANFNVLFSTVFPPTSFGPLVRKIFVDGVPFVVSTGYHFRELGVVHNQDVNLHSSRLSFKELLVYAADPAMHAASGNLLLDKRTTCFSVAALTNNVAFQTVKPGNFNKDFYDFAVSKGFFKEGSSVELKHFFFAQDGNAAISDYDYYRYNLPTMCDIRQLLFVVEVVDKYFDCYDGGCINANQVIVNNLDKSAGFPFNKWGKARLYYDSMSYEDQDALFAYTKRNVIPTITQMNLKYAISAKNRARTVAGVSICSTMTNRQFHQKLLKSIAATRGATVVIGTSKFYGGWHNMLKTVYSDVENPHLMGWDYPKCDRAMPNMLRIMASLVLARKHTTCCSLSHRFYRLANECAQVLSEMVMCGGSLYVKPGGTSSGDATTAYANSVFNICQAVTANVNALLSTDGNKIADKYVRNLQHRLYECLYRNRDVDTDFVNEFYAYLRKHFSMMILSDDAVVCFNSTYASQGLVASIKNFKSVLYYQNNVFMSEAKCWTETDLTKGPHEFCSQHTMLVKQGDDYVYLPYPDPSRILGAGCFVDDIVKTDGTLMIERFVSLAIDAYPLTKHPNQEYADVFHLYLQYIRKLHDELTGHMLDMYSVMLTNDNTSRYWEPEFYEAMYTPHTVLQAVGACVLCNSQTSLRCGACIRRPFLCCKCCYDHVISTSHKLVLSVNPYVCNAPGCDVTDVTQLYLGGMSYYCKSHKPPISFPLCANGQVFGLYKNTCVGSDNVTDFNAIATCDWTNAGDYILANTCTERLKLFAAETLKATEETFKLSYGIATVREVLSDRELHLSWEVGKPRPPLNRNYVFTGYRVTKNSKVQIGEYTFEKGDYGDAVVYRGTTTYKLNVGDYFVLTSHTVMPLSAPTLVPQEHYVRITGLYPTLNISDEFSSNVANYQKVGMQKYSTLQGPPGTGKSHFAIGLALYYPSARIVYTACSHAAVDALCEKALKYLPIDKCSRIIPARARVECFDKFKVNSTLEQYVFCTVNALPETTADIVVFDEISMATNYDLSVVNARLRAKHYVYIGDPAQLPAPRTLLTKGTLEPEYFNSVCRLMKTIGPDMFLGTCRRCPAEIVDTVSALVYDNKLKAHKDKSAQCFKMFYKGVITHDVSSAINRPQIGVVREFLTRNPAWRKAVFISPYNSQNAVASKILGLPTQTVDSSQGSEYDYVIFTQTTETAHSCNVNRFNVAITRAKVGILCIMSDRDLYDKLQFTSLEIPRRNVATLQAENVTGLFKDCSKVITGLHPTQAPTHLSVDTKFKTEGLCVDIPGIPKDMTYRRLISMMGFKMNYQVNGYPNMFITREEAIRHVRAWIGFDVEGCHATREAVGTNLPLQLGFSTGVNLVAVPTGYVDTPNNTDFSRVSAKPPPGDQFKHLIPLMYKGLPWNVVRIKIVQMLSDTLKNLSDRVVFVLWAHGFELTSMKYFVKIGPERTCCLCDRRATCFSTASDTYACWHHSIGFDYVYNPFMIDVQQWGFTGNLQSNHDLYCQVHGNAHVASCDAIMTRCLAVHECFVKRVDWTIEYPIIGDELKINAACRKVQHMVVKAALLADKFPVLHDIGNPKAIKCVPQADVEWKFYDAQPCSDKAYKIEELFYSYATHSDKFTDGVCLFWNCNVDRYPANSIVCRFDTRVLSNLNLPGCDGGSLYVNKHAFHTPAFDKSAFVNLKQLPFFYYSDSPCESHGKQVVSDIDYVPLKSATCITRCNLGGAVCRHHANEYRLYLDAYNMMISAGFSLWVYKQFDTYNLWNTFTRLQSLENVAFNVVNKGHFDGQQGEVPVSIINNTVYTKVDGVDVELFENKTTLPVNVAFELWAKRNIKPVPEVKILNNLGVDIAANTVIWDYKRDAPAHISTIGVCSMTDIAKKPTETICAPLTVFFDGRVDGQVDLFRNARNGVLITEGSVKGLQPSVGPKQASLNGVTLIGEAVKTQFNYYKKVDGVVQQLPETYFTQSRNLQEFKPRSQMEIDFLELAMDEFIERYKLEGYAFEHIVYGDFSHSQLGGLHLLIGLAKRFKESPFELEDFIPMDSTVKNYFITDAQTGSSKCVCSVIDLLLDDFVEIIKSQDLSVVSKVVKVTIDYTEISFMLWCKDGHVETFYPKLQSSQAWQPGVAMPNLYKMQRMLLEKCDLQNYGDSATLPKGIMMNVAKYTQLCQYLNTLTLAVPYNMRVIHFGAGSDKGVAPGTAVLRQWLPTGTLLVDSDLNDFVSDADSTLIGDCATVHTANKWDLIISDMYDPKTKNVTKENDSKEGFFTYICGFIQQKLALGGSVAIKITEHSWNADLYKLMGHFAWWTAFVTNVNASSSEAFLIGCNYLGKPREQIDGYVMHANYIFWRNTNPIQLSSYSLFDMSKFPLKLRGTAVMSLKEGQINDMILSLLSKGRLIIRENNRVVISSDVLVNN

> <PDB ID(s) of Target Chain>
8YB7,8YB5,8YAX,7O81,7O80,7O7Z,7O7Y,7OYG,7B3D,7B3C,7B3B,6YYT,9UHT,9L09,9IMM,9IMK,9I81,9DJ8,8SQJ,8SQ9,8GY6,8GWO,8GWN,8GWM,8GWK,8GWI,8GWG,8GWF,8GWE,8GWB,7UOE,7UOB,7UO9,7UO7,7UO4,7THM,7RE3,7RE2,7RE1,7RE0,7RDZ,7RDY,7RDX,7OZV,7OZU,7KRP,7KRO,7KRN,7EGQ,7CTT,6XEZ,6XQB,8XCH,7CYQ,7BZF,7BTF,6M71,9IKZ,7ED5,7AAP,8GW1,7CXN,7CXM,8SQK,7EIZ,9SAR,9SAP,7BW4,7L1F,7MSX,7MSW,7NNG,5ROB,5RMM,5RML,5RMK,5RMJ,5RMI,5RMH,5RMG,5RMF,5RME,5RMD,5RMC,5RMB,5RMA,5RM9,5RM8,5RM7,5RM6,5RM5,5RM4,5RM3,5RM2,5RM1,5RM0,5RLZ,5RLY,5RLW,5RLV,5RLU,5RLT,5RLS,5RLR,5RLQ,5RLP,5RLO,5RLN,5RLM,5RLL,5RLK,5RLJ,5RLI,5RLH,5RLG,5RLF,5RLE,5RLD,5RLC,5RLB,5RL9,5RL8,5RL7,5RL6,9I53,9I51,9I4V,9I1S,7NN0,7NIO,6ZSL,9VCL,7N0B,9S2V,9R5T,8R7B,9VCK,9NJG,9NIO,9NHU,9NHA,9NFP,9NAZ,7QIF,7QGI,5SMK,5SMI,5SMH,5SMG,5SMF,5SME,5SMD,5SMC,5SMB,5SMA,5SM9,5SM8,5SM7,5SM6,5SM5,5SM4,5SM3,5SM2,5SM1,5SM0,5SLZ,5SLY,5SLX,5SLW,5SLV,5SLU,5SLT,5SLS,5SLR,5SLQ,5SLP,5SLO,5SLN,5SLM,5SLL,5SLK,5SLJ,5SLI,5SLH,5SLG,5SLF,5SLE,5SLD,5SLC,5SLB,5SLA,5SL9,5SL8,5SL7,5SL6,5SL5,5SL4,5SL3,5SL2,5SL1,5SL0,5SKZ,5SKY,5SKX,5SKW,8EIR,7K0R,7RB2,7RB0,7N83,7N7Y,7N7W,7N7U,7N7R,7KF4,7KEH,7KEG,5SBF,5SAI

> <UniProt (SwissProt) Recommended Name of Target Chain>
Replicase polyprotein 1ab

> <UniProt (SwissProt) Entry Name of Target Chain>
R1AB_SARS2

> <UniProt (SwissProt) Primary ID of Target Chain>
P0DTD1

> <UniProt (SwissProt) Secondary ID(s) of Target Chain>


> <UniProt (SwissProt) Alternative ID(s) of Target Chain>


> <UniProt (TrEMBL) Submitted Name of Target Chain>


> <UniProt (TrEMBL) Entry Name of Target Chain>


> <UniProt (TrEMBL) Primary ID of Target Chain>


> <UniProt (TrEMBL) Secondary ID(s) of Target Chain>


> <UniProt (TrEMBL) Alternative ID(s) of Target Chain>


$$$$

JME 2024-04-29 Tue Aug 26 15:05:40 GMT-700 2025

 39 44  0  0  0  0  0  0  0  0999 V2000
    4.8497    7.1239    0.0000 C   0  0  0  0  0  0  0  0  0  0  0  0
    3.7171    6.3010    0.0000 C   0  0  0  0  0  0  0  0  0  0  0  0
    4.1497    4.9695    0.0000 N   0  0  0  0  0  0  0  0  0  0  0  0
    5.5497    4.9695    0.0000 C   0  0  0  0  0  0  0  0  0  0  0  0
    5.9824    6.3010    0.0000 C   0  0  0  0  0  0  0  0  0  0  0  0
    6.0622    7.8239    0.0000 C   0  0  0  0  0  0  0  0  0  0  0  0
    6.0622    9.2239    0.0000 N   0  0  0  0  0  0  0  0  0  0  0  0
    4.8497    9.9239    0.0000 C   0  0  0  0  0  0  0  0  0  0  0  0
    3.6373    9.2239    0.0000 C   0  0  0  0  0  0  0  0  0  0  0  0
    3.6373    7.8239    0.0000 C   0  0  0  0  0  0  0  0  0  0  0  0
    2.4249    9.9239    0.0000 C   0  0  0  0  0  0  0  0  0  0  0  0
    1.2124    9.2239    0.0000 C   0  0  0  0  0  0  0  0  0  0  0  0
    1.2124    7.8239    0.0000 C   0  0  0  0  0  0  0  0  0  0  0  0
    2.4249    7.1239    0.0000 C   0  0  0  0  0  0  0  0  0  0  0  0
    4.8497   11.3239    0.0000 O   0  0  0  0  0  0  0  0  0  0  0  0
    7.2746    9.9239    0.0000 C   0  0  0  0  0  0  0  0  0  0  0  0
    0.0000    7.1239    0.0000 Cl  0  0  0  0  0  0  0  0  0  0  0  0
    3.3268    3.8369    0.0000 C   0  0  0  0  0  0  0  0  0  0  0  0
    1.9345    3.9832    0.0000 C   0  0  0  0  0  0  0  0  0  0  0  0
    1.1116    2.8506    0.0000 N   0  0  0  0  0  0  0  0  0  0  0  0
    1.6810    1.5716    0.0000 C   0  0  0  0  0  0  0  0  0  0  0  0
    3.0734    1.4253    0.0000 C   0  0  0  0  0  0  0  0  0  0  0  0
    3.8963    2.5579    0.0000 C   0  0  0  0  0  0  0  0  0  0  0  0
    3.6428    0.1463    0.0000 C   0  0  0  0  0  0  0  0  0  0  0  0
    5.0351    0.0000    0.0000 C   0  0  0  0  0  0  0  0  0  0  0  0
    5.8580    1.1326    0.0000 C   0  0  0  0  0  0  0  0  0  0  0  0
    5.2886    2.4116    0.0000 C   0  0  0  0  0  0  0  0  0  0  0  0
    2.3205    6.2039    0.0000 O   0  0  0  0  0  0  0  0  0  0  0  0
    7.3138    6.7336    0.0000 C   0  0  0  0  0  0  0  0  0  0  0  0
    8.3542    5.7968    0.0000 N   0  0  0  0  0  0  0  0  0  0  0  0
    8.0632    4.4274    0.0000 C   0  0  0  0  0  0  0  0  0  0  0  0
    9.1036    3.4906    0.0000 C   0  0  0  0  0  0  0  0  0  0  0  0
    8.4871    9.2239    0.0000 C   0  0  0  0  0  0  0  0  0  0  0  0
    8.4871    7.8239    0.0000 C   0  0  0  0  0  0  0  0  0  0  0  0
    9.6995    7.1239    0.0000 C   0  0  0  0  0  0  0  0  0  0  0  0
   10.9119    7.8240    0.0000 O   0  0  0  0  0  0  0  0  0  0  0  0
   10.9119    9.2240    0.0000 C   0  0  0  0  0  0  0  0  0  0  0  0
    9.6995    9.9239    0.0000 C   0  0  0  0  0  0  0  0  0  0  0  0
    6.7317    3.9948    0.0000 C   0  0  0  0  0  0  0  0  0  0  0  0
  2  3  1  0  0  0  0
  3  4  1  0  0  0  0
  4  5  1  0  0  0  0
  1  5  1  0  0  0  0
  1  2  1  1  0  0  0
  6  7  1  0  0  0  0
  7  8  1  0  0  0  0
  8  9  1  0  0  0  0
  9 10  1  0  0  0  0
 11 12  1  0  0  0  0
 12 13  2  0  0  0  0
 13 14  1  0  0  0  0
 10 14  2  0  0  0  0
  9 11  2  0  0  0  0
  8 15  2  0  0  0  0
  7 16  1  0  0  0  0
  1 10  1  0  0  0  0
 13 17  1  0  0  0  0
  3 18  1  0  0  0  0
 19 20  1  0  0  0  0
 20 21  2  0  0  0  0
 21 22  1  0  0  0  0
 22 23  2  0  0  0  0
 18 23  1  0  0  0  0
 18 19  2  0  0  0  0
 24 25  2  0  0  0  0
 25 26  1  0  0  0  0
 26 27  2  0  0  0  0
 23 27  1  0  0  0  0
 22 24  1  0  0  0  0
  2 28  2  0  0  0  0
  5 29  1  1  0  0  0
 29 30  1  0  0  0  0
 30 31  1  0  0  0  0
 31 32  1  0  0  0  0
 16 33  1  0  0  0  0
 34 35  1  0  0  0  0
 35 36  1  0  0  0  0
 36 37  1  0  0  0  0
 37 38  1  0  0  0  0
 33 38  1  0  0  0  0
 33 34  1  0  0  0  0
  1  6  1  0  0  0  0
 31 39  1  0  0  0  0
M  END
> <From>
www.bindingDB.org

> <BindingDB Reactant_set_id>
1515159

> <Ligand InChI>


> <Ligand InChI Key>


> <BindingDB MonomerID>
736197

> <BindingDB Ligand Name>
(4S,4'S)-6-chloro-4,-[(ethylamino)methyl]-1,-(4-isoquinolyl)-2-[(6-methylpyrimidin-4-yl)methyl]spiro[3H-isoquinoUne-4,3'-pyrrolidine]-1,2,-dione::WO2025125695, Example 5

> <Target Name>
Replicase polyprotein 1ab

> <Target Source Organism According to Curator or DataSource>
Severe acute respiratory syndrome coronavirus

> <Ki (nM)>


> <IC50 (nM)>
 2

> <Kd (nM)>


> <EC50 (nM)>


> <kon (M-1-s-1)>


> <koff (s-1)>


> <pH>


> <Temp C>


> <Curation/DataSource>
WIPO

> <Article DOI>


> <BindingDB Entry DOI>
10.7270/Q2805754

> <PMID>


> <PubChem AID>


> <Patent Number>
WO2025125695

> <Authors>
GRIFFEN, EJ; COUSINS, DL; STACEY-JEPSON, JE; LEFKER, BA; ROBINSON, RP

> <Date of publication>
4/23/2025

> <Date in BindingDB>
8/28/2025

> <Institution>
Medchemica

> <Link to Ligand in BindingDB>
http://www.bindingdb.org/bind/chemsearch/marvin/MolStructure.jsp?monomerid=736197

> <Link to Ligand-Target Pair in BindingDB>
http://www.bindingdb.org/rwd/jsp/dbsearch/PrimarySearch_ki.jsp?energyterm=kJ/mole&tag=pol&polymerid=4753&target=Replicase+polyprotein+1ab&column=ki&startPg=0&Increment=50&submit=Search

> <Link to Ligand-Target Pair in BindingDB>
http://www.bindingdb.org/rwd/jsp/dbsearch/PrimarySearch_ki.jsp?energyterm=kJ/mole&tag=r21&monomerid=736197&enzyme=Replicase+polyprotein+1ab&column=ki&startPg=0&Increment=50&submit=Search

> <Ligand HET ID in PDB>


> <PDB ID(s) for Ligand-Target Complex>


> <PubChem CID of Ligand>
176394998

> <PubChem SID of Ligand>
518296820

> <ChEBI ID of Ligand>


> <ChEMBL ID of Ligand>


> <DrugBank ID of Ligand>


> <IUPHAR_GRAC ID of Ligand>


> <KEGG ID of Ligand>


> <ZINC ID of Ligand>


> <Number of Protein Chains in Target (bigger than 1 implies a multichain complex)>
1

> <BindingDB Target Chain Sequence>
MESLVLGVNEKTHVQLSLPVLQVRDVLVRGFGDSVEEALSEAREHLKNGTCGLVELEKGV LPQLEQPYVFIKRSDALSTNHGHKVVELVAEMDGIQYGRSGITLGVLVPHVGETPIAYRN VLLRKNGNKGAGGHSYGIDLKSYDLGDELGTDPIEDYEQNWNTKHGSGALRELTRELNGG AVTRYVDNNFCGPDGYPLDCIKDFLARAGKSMCTLSEQLDYIESKRGVYCCRDHEHEIAW FTERSDKSYEHQTPFEIKSAKKFDTFKGECPKFVFPLNSKVKVIQPRVEKKKTEGFMGRI RSVYPVASPQECNNMHLSTLMKCNHCDEVSWQTCDFLKATCEHCGTENLVIEGPTTCGYL PTNAVVKMPCPACQDPEIGPEHSVADYHNHSNIETRLRKGGRTRCFGGCVFAYVGCYNKR AYWVPRASADIGSGHTGITGDNVETLNEDLLEILSRERVNINIVGDFHLNEEVAIILASF SASTSAFIDTIKSLDYKSFKTIVESCGNYKVTKGKPVKGAWNIGQQRSVLTPLCGFPSQA AGVIRSIFARTLDAANHSIPDLQRAAVTILDGISEQSLRLVDAMVYTSDLLTNSVIIMAY VTGGLVQQTSQWLSNLLGTTVEKLRPIFEWIEAKLSAGVEFLKDAWEILKFLITGVFDIV KGQIQVASDNIKDCVKCFIDVVNKALEMCIDQVTIAGAKLRSLNLGEVFIAQSKGLYRQC IRGKEQLQLLMPLKAPKEVTFLEGDSHDTVLTSEEVVLKNGELEALETPVDSFTNGAIVG TPVCVNGLMLLEIKDKEQYCALSPGLLATNNVFRLKGGAPIKGVTFGEDTVWEVQGYKNV RITFELDERVDKVLNEKCSVYTVESGTEVTEFACVVAEAVVKTLQPVSDLLTNMGIDLDE WSVATFYLFDDAGEENFSSRMYCSFYPPDEEEEDDAECEEEEIDETCEHEYGTEDDYQGL PLEFGASAETVRVEEEEEEDWLDDTTEQSEIEPEPEPTPEEPVNQFTGYLKLTDNVAIKC VDIVKEAQSANPMVIVNAANIHLKHGGGVAGALNKATNGAMQKESDDYIKLNGPLTVGGS CLLSGHNLAKKCLHVVGPNLNAGEDIQLLKAAYENFNSQDILLAPLLSAGIFGAKPLQSL QVCVQTVRTQVYIAVNDKALYEQVVMDYLDNLKPRVEAPKQEEPPNTEDSKTEEKSVVQK PVDVKPKIKACIDEVTTTLEETKFLTNKLLLFADINGKLYHDSQNMLRGEDMSFLEKDAP YMVGDVITSGDITCVVIPSKKAGGTTEMLSRALKKVPVDEYITTYPGQGCAGYTLEEAKT ALKKCKSAFYVLPSEAPNAKEEILGTVSWNLREMLAHAEETRKLMPICMDVRAIMATIQR KYKGIKIQEGIVDYGVRFFFYTSKEPVASIITKLNSLNEPLVTMPIGYVTHGFNLEEAAR CMRSLKAPAVVSVSSPDAVTTYNGYLTSSSKTSEEHFVETVSLAGSYRDWSYSGQRTELG VEFLKRGDKIVYHTLESPVEFHLDGEVLSLDKLKSLLSLREVKTIKVFTTVDNTNLHTQL VDMSMTYGQQFGPTYLDGADVTKIKPHVNHEGKTFFVLPSDDTLRSEAFEYYHTLDESFL GRYMSALNHTKKWKFPQVGGLTSIKWADNNCYLSSVLLALQQLEVKFNAPALQEAYYRAR AGDAANFCALILAYSNKTVGELGDVRETMTHLLQHANLESAKRVLNVVCKHCGQKTTTLT GVEAVMYMGTLSYDNLKTGVSIPCVCGRDATQYLVQQESSFVMMSAPPAEYKLQQGTFLC ANEYTGNYQCGHYTHITAKETLYRIDGAHLTKMSEYKGPVTDVFYKETSYTTTIKPVSYK LDGVTYTEIEPKLDGYYKKDNAYYTEQPIDLVPTQPLPNASFDNFKLTCSNTKFADDLNQ MTGFTKPASRELSVTFFPDLNGDVVAIDYRHYSASFKKGAKLLHKPIVWHINQATTKTTF KPNTWCLRCLWSTKPVDTSNSFEVLAVEDTQGMDNLACESQQPTSEEVVENPTIQKEVIE CDVKTTEVVGNVILKPSDEGVKVTQELGHEDLMAAYVENTSITIKKPNELSLALGLKTIA THGIAAINSVPWSKILAYVKPFLGQAAITTSNCAKRLAQRVFNNYMPYVFTLLFQLCTFT KSTNSRIRASLPTTIAKNSVKSVAKLCLDAGINYVKSPKFSKLFTIAMWLLLLSICLGSL ICVTAAFGVLLSNFGAPSYCNGVRELYLNSSNVTTMDFCEGSFPCSICLSGLDSLDSYPA LETIQVTISSYKLDLTILGLAAEWVLAYMLFTKFFYLLGLSAIMQVFFGYFASHFISNSW LMWFIISIVQMAPVSAMVRMYIFFASFYYIWKSYVHIMDGCTSSTCMMCYKRNRATRVEC TTIVNGMKRSFYVYANGGRGFCKTHNWNCLNCDTFCTGSTFISDEVARDLSLQFKRPINP TDQSSYIVDSVAVKNGALHLYFDKAGQKTYERHPLSHFVNLDNLRANNTKGSLPINVIVF DGKSKCDESASKSASVYYSQLMCQPILLLDQALVSDVGDSTEVSVKMFDAYVDTFSATFS VPMEKLKALVATAHSELAKGVALDGVLSTFVSAARQGVVDTDVDTKDVIECLKLSHHSDL EVTGDSCNNFMLTYNKVENMTPRDLGACIDCNARHINAQVAKSHNVSLIWNVKDYMSLSE QLRKQIRSAAKKNNIPFRLTCATTRQVVNVITTKISLKGGKIVSTCFKLMLKATLLCVLA ALVCYIVMPVHTLSIHDGYTNEIIGYKAIQDGVTRDIISTDDCFANKHAGFDAWFSQRGG SYKNDKSCPVVAAIITREIGFIVPGLPGTVLRAINGDFLHFLPRVFSAVGNICYTPSKLI EYSDFATSACVLAAECTIFKDAMGKPVPYCYDTNLLEGSISYSELRPDTRYVLMDGSIIQ FPNTYLEGSVRVVTTFDAEYCRHGTCERSEVGICLSTSGRWVLNNEHYRALSGVFCGVDA MNLIANIFTPLVQPVGALDVSASVVAGGIIAILVTCAAYYFMKFRRVFGEYNHVVAANAL LFLMSFTILCLVPAYSFLPGVYSVFYLYLTFYFTNDVSFLAHLQWFAMFSPIVPFWITAI YVFCISLKHCHWFFNNYLRKRVMFNGVTFSTFEEAALCTFLLNKEMYLKLRSETLLPLTQ YNRYLALYNKYKYFSGALDTTSYREAACCHLAKALNDFSNSGADVLYQPPQTSITSAVLQ SGFRKMAFPSGKVEGCMVQVTCGTTTLNGLWLDDTVYCPRHVICTAEDMLNPNYEDLLIR KSNHSFLVQAGNVQLRVIGHSMQNCLLRLKVDTSNPKTPKYKFVRIQPGQTFSVLACYNG SPSGVYQCAMRPNHTIKGSFLNGSCGSVGFNIDYDCVSFCYMHHMELPTGVHAGTDLEGK FYGPFVDRQTAQAAGTDTTITLNVLAWLYAAVINGDRWFLNRFTTTLNDFNLVAMKYNYE PLTQDHVDILGPLSAQTGIAVLDMCAALKELLQNGMNGRTILGSTILEDEFTPFDVVRQC SGVTFQGKFKKIVKGTHHWMLLTFLTSLLILVQSTQWSLFFFVYENAFLPFTLGIMAIAA CAMLLVKHKHAFLCLFLLPSLATVAYFNMVYMPASWVMRIMTWLELADTSLSGYRLKDCV MYASALVLLILMTARTVYDDAARRVWTLMNVITLVYKVYYGNALDQAISMWALVISVTSN YSGVVTTIMFLARAIVFVCVEYYPLLFITGNTLQCIMLVYCFLGYCCCCYFGLFCLLNRY FRLTLGVYDYLVSTQEFRYMNSQGLLPPKSSIDAFKLNIKLLGIGGKPCIKVATVQSKMS DVKCTSVVLLSVLQQLRVESSSKLWAQCVQLHNDILLAKDTTEAFEKMVSLLSVLLSMQG AVDINRLCEEMLDNRATLQAIASEFSSLPSYAAYATAQEAYEQAVANGDSEVVLKKLKKS LNVAKSEFDRDAAMQRKLEKMADQAMTQMYKQARSEDKRAKVTSAMQTMLFTMLRKLDND ALNNIINNARDGCVPLNIIPLTTAAKLMVVVPDYGTYKNTCDGNTFTYASALWEIQQVVD ADSKIVQLSEINMDNSPNLAWPLIVTALRANSAVKLQNNELSPVALRQMSCAAGTTQTAC TDDNALAYYNNSKGGRFVLALLSDHQDLKWARFPKSDGTGTIYTELEPPCRFVTDTPKGP KVKYLYFIKGLNNLNRGMVLGSLAATVRLQAGNATEVPANSTVLSFCAFAVDPAKAYKDY LASGGQPITNCVKMLCTHTGTGQAITVTPEANMDQESFGGASCCLYCRCHIDHPNPKGFC DLKGKYVQIPTTCANDPVGFTLRNTVCTVCGMWKGYGCSCDQLREPLMQSADASTFLNRV CGVSAARLTPCGTGTSTDVVYRAFDIYNEKVAGFAKFLKTNCCRFQEKDEEGNLLDSYFV VKRHTMSNYQHEETIYNLVKDCPAVAVHDFFKFRVDGDMVPHISRQRLTKYTMADLVYAL RHFDEGNCDTLKEILVTYNCCDDDYFNKKDWYDFVENPDILRVYANLGERVRQSLLKTVQ FCDAMRDAGIVGVLTLDNQDLNGNWYDFGDFVQVAPGCGVPIVDSYYSLLMPILTLTRAL AAESHMDADLAKPLIKWDLLKYDFTEERLCLFDRYFKYWDQTYHPNCINCLDDRCILHCA NFNVLFSTVFPPTSFGPLVRKIFVDGVPFVVSTGYHFRELGVVHNQDVNLHSSRLSFKEL LVYAADPAMHAASGNLLLDKRTTCFSVAALTNNVAFQTVKPGNFNKDFYDFAVSKGFFKE GSSVELKHFFFAQDGNAAISDYDYYRYNLPTMCDIRQLLFVVEVVDKYFDCYDGGCINAN QVIVNNLDKSAGFPFNKWGKARLYYDSMSYEDQDALFAYTKRNVIPTITQMNLKYAISAK NRARTVAGVSICSTMTNRQFHQKLLKSIAATRGATVVIGTSKFYGGWHNMLKTVYSDVET PHLMGWDYPKCDRAMPNMLRIMASLVLARKHNTCCNLSHRFYRLANECAQVLSEMVMCGG SLYVKPGGTSSGDATTAYANSVFNICQAVTANVNALLSTDGNKIADKYVRNLQHRLYECL YRNRDVDHEFVDEFYAYLRKHFSMMILSDDAVVCYNSNYAAQGLVASIKNFKAVLYYQNN VFMSEAKCWTETDLTKGPHEFCSQHTMLVKQGDDYVYLPYPDPSRILGAGCFVDDIVKTD GTLMIERFVSLAIDAYPLTKHPNQEYADVFHLYLQYIRKLHDELTGHMLDMYSVMLTNDN TSRYWEPEFYEAMYTPHTVLQAVGACVLCNSQTSLRCGACIRRPFLCCKCCYDHVISTSH KLVLSVNPYVCNAPGCDVTDVTQLYLGGMSYYCKSHKPPISFPLCANGQVFGLYKNTCVG SDNVTDFNAIATCDWTNAGDYILANTCTERLKLFAAETLKATEETFKLSYGIATVREVLS DRELHLSWEVGKPRPPLNRNYVFTGYRVTKNSKVQIGEYTFEKGDYGDAVVYRGTTTYKL NVGDYFVLTSHTVMPLSAPTLVPQEHYVRITGLYPTLNISDEFSSNVANYQKVGMQKYST LQGPPGTGKSHFAIGLALYYPSARIVYTACSHAAVDALCEKALKYLPIDKCSRIIPARAR VECFDKFKVNSTLEQYVFCTVNALPETTADIVVFDEISMATNYDLSVVNARLRAKHYVYI GDPAQLPAPRTLLTKGTLEPEYFNSVCRLMKTIGPDMFLGTCRRCPAEIVDTVSALVYDN KLKAHKDKSAQCFKMFYKGVITHDVSSAINRPQIGVVREFLTRNPAWRKAVFISPYNSQN AVASKILGLPTQTVDSSQGSEYDYVIFTQTTETAHSCNVNRFNVAITRAKIGILCIMSDR DLYDKLQFTSLEIPRRNVATLQAENVTGLFKDCSKIITGLHPTQAPTHLSVDIKFKTEGL CVDIPGIPKDMTYRRLISMMGFKMNYQVNGYPNMFITREEAIRHVRAWIGFDVEGCHATR DAVGTNLPLQLGFSTGVNLVAVPTGYVDTENNTEFTRVNAKPPPGDQFKHLIPLMYKGLP WNVVRIKIVQMLSDTLKGLSDRVVFVLWAHGFELTSMKYFVKIGPERTCCLCDKRATCFS TSSDTYACWNHSVGFDYVYNPFMIDVQQWGFTGNLQSNHDQHCQVHGNAHVASCDAIMTR CLAVHECFVKRVDWSVEYPIIGDELRVNSACRKVQHMVVKSALLADKFPVLHDIGNPKAI KCVPQAEVEWKFYDAQPCSDKAYKIEELFYSYATHHDKFTDGVCLFWNCNVDRYPANAIV CRFDTRVLSNLNLPGCDGGSLYVNKHAFHTPAFDKSAFTNLKQLPFFYYSDSPCESHGKQ VVSDIDYVPLKSATCITRCNLGGAVCRHHANEYRQYLDAYNMMISAGFSLWIYKQFDTYN LWNTFTRLQSLENVAYNVVNKGHFDGHAGEAPVSIINNAVYTKVDGIDVEIFENKTTLPV NVAFELWAKRNIKPVPEIKILNNLGVDIAANTVIWDYKREAPAHVSTIGVCTMTDIAKKP TESACSSLTVLFDGRVEGQVDLFRNARNGVLITEGSVKGLTPSKGPAQASVNGVTLIGES VKTQFNYFKKVDGIIQQLPETYFTQSRDLEDFKPRSQMETDFLELAMDEFIQRYKLEGYA FEHIVYGDFSHGQLGGLHLMIGLAKRSQDSPLKLEDFIPMDSTVKNYFITDAQTGSSKCV CSVIDLLLDDFVEIIKSQDLSVISKVVKVTIDYAEISFMLWCKDGHVETFYPKLQASQAW QPGVAMPNLYKMQRMLLEKCDLQNYGENAVIPKGIMMNVAKYTQLCQYLNTLTLAVPYNM RVIHFGAGSDKGVAPGTAVLRQWLPTGTLLVDSDLNDFVSDADSTLIGDCATVHTANKWD LIISDMYDPRTKHVTKENDSKEGFFTYLCGFIKQKLALGGSIAVKITEHSWNADLYKLMG HFSWWTAFVTNVNASSSEAFLIGANYLGKPKEQIDGYTMHANYIFWRNTNPIQLSSYSLF DMSKFPLKLRGTAVMSLKENQINDMIYSLLEKGRLIIRENNRVVVSSDILVNN

> <PDB ID(s) of Target Chain>
9CGV,8XKO,7DTE,7C2K,9PZ0,9PYZ,9PYW,9BLF,6JYT,5C8S,5C8U,5C8T,7FAC,9NJG,9NIO,9NHU,9NHA,9NFP,9NAZ,7QIF,7QGI,5SMK,5SMI,5SMH,5SMG,5SMF,5SME,5SMD,5SMC,5SMB,5SMA,5SM9,5SM8,5SM7,5SM6,5SM5,5SM4,5SM3,5SM2,5SM1,5SM0,5SLZ,5SLY,5SLX,5SLW,5SLV,5SLU,5SLT,5SLS,5SLR,5SLQ,5SLP,5SLO,5SLN,5SLM,5SLL,5SLK,5SLJ,5SLI,5SLH,5SLG,5SLF,5SLE,5SLD,5SLC,5SLB,5SLA,5SL9,5SL8,5SL7,5SL6,5SL5,5SL4,5SL3,5SL2,5SL1,5SL0,5SKZ,5SKY,5SKX,5SKW,7R2V,2OZK,5TL7,5TL6,3E9S,4OW0,4OVZ,4MM3,3MJ5,2FE8,5Y3Q,5Y3E,9CEH,2GTB,2GT8,2A5K,7ZQW,7XAX,7RC1,7LMJ,7LMI,7LMH,7LMG,7LCQ,7LCP,7EO8,7END,7DQZ

> <UniProt (SwissProt) Recommended Name of Target Chain>
Replicase polyprotein 1ab

> <UniProt (SwissProt) Entry Name of Target Chain>
R1AB_SARS

> <UniProt (SwissProt) Primary ID of Target Chain>
P0C6X7

> <UniProt (SwissProt) Secondary ID(s) of Target Chain>
P59641 Q6WGN0 Q7T697 Q808C0 Q80BV7 Q80BV8 Q80E51

> <UniProt (SwissProt) Alternative ID(s) of Target Chain>


> <UniProt (TrEMBL) Submitted Name of Target Chain>


> <UniProt (TrEMBL) Entry Name of Target Chain>


> <UniProt (TrEMBL) Primary ID of Target Chain>


> <UniProt (TrEMBL) Secondary ID(s) of Target Chain>


> <UniProt (TrEMBL) Alternative ID(s) of Target Chain>


$$$$

JME 2024-04-29 Tue Aug 26 14:52:19 GMT-700 2025

 39 44  0  0  0  0  0  0  0  0999 V2000
    4.8497    7.1239    0.0000 C   0  0  0  0  0  0  0  0  0  0  0  0
    3.7171    6.3010    0.0000 C   0  0  0  0  0  0  0  0  0  0  0  0
    4.1497    4.9695    0.0000 N   0  0  0  0  0  0  0  0  0  0  0  0
    5.5497    4.9695    0.0000 C   0  0  0  0  0  0  0  0  0  0  0  0
    5.9824    6.3010    0.0000 C   0  0  0  0  0  0  0  0  0  0  0  0
    6.0622    7.8239    0.0000 C   0  0  0  0  0  0  0  0  0  0  0  0
    6.0622    9.2239    0.0000 N   0  0  0  0  0  0  0  0  0  0  0  0
    4.8497    9.9239    0.0000 C   0  0  0  0  0  0  0  0  0  0  0  0
    3.6373    9.2239    0.0000 C   0  0  0  0  0  0  0  0  0  0  0  0
    3.6373    7.8239    0.0000 C   0  0  0  0  0  0  0  0  0  0  0  0
    2.4249    9.9239    0.0000 C   0  0  0  0  0  0  0  0  0  0  0  0
    1.2124    9.2239    0.0000 C   0  0  0  0  0  0  0  0  0  0  0  0
    1.2124    7.8239    0.0000 C   0  0  0  0  0  0  0  0  0  0  0  0
    2.4249    7.1239    0.0000 C   0  0  0  0  0  0  0  0  0  0  0  0
    4.8497   11.3239    0.0000 O   0  0  0  0  0  0  0  0  0  0  0  0
    7.2746    9.9239    0.0000 C   0  0  0  0  0  0  0  0  0  0  0  0
    8.4870    9.2239    0.0000 C   0  0  0  0  0  0  0  0  0  0  0  0
    8.6334    7.8316    0.0000 N   0  0  0  0  0  0  0  0  0  0  0  0
   10.0028    7.5405    0.0000 N   0  0  0  0  0  0  0  0  0  0  0  0
   10.7028    8.7529    0.0000 N   0  0  0  0  0  0  0  0  0  0  0  0
    9.7660    9.7933    0.0000 C   0  0  0  0  0  0  0  0  0  0  0  0
    0.0000    7.1239    0.0000 Cl  0  0  0  0  0  0  0  0  0  0  0  0
   12.0951    8.8993    0.0000 C   0  0  0  0  0  0  0  0  0  0  0  0
    3.3268    3.8369    0.0000 C   0  0  0  0  0  0  0  0  0  0  0  0
    1.9345    3.9832    0.0000 C   0  0  0  0  0  0  0  0  0  0  0  0
    1.1116    2.8506    0.0000 N   0  0  0  0  0  0  0  0  0  0  0  0
    1.6810    1.5716    0.0000 C   0  0  0  0  0  0  0  0  0  0  0  0
    3.0734    1.4253    0.0000 C   0  0  0  0  0  0  0  0  0  0  0  0
    3.8963    2.5579    0.0000 C   0  0  0  0  0  0  0  0  0  0  0  0
    3.6428    0.1463    0.0000 C   0  0  0  0  0  0  0  0  0  0  0  0
    5.0351    0.0000    0.0000 C   0  0  0  0  0  0  0  0  0  0  0  0
    5.8580    1.1326    0.0000 C   0  0  0  0  0  0  0  0  0  0  0  0
    5.2886    2.4116    0.0000 C   0  0  0  0  0  0  0  0  0  0  0  0
    2.3205    6.2039    0.0000 O   0  0  0  0  0  0  0  0  0  0  0  0
    7.3138    6.7336    0.0000 C   0  0  0  0  0  0  0  0  0  0  0  0
    8.3542    5.7968    0.0000 N   0  0  0  0  0  0  0  0  0  0  0  0
    8.0632    4.4274    0.0000 C   0  0  0  0  0  0  0  0  0  0  0  0
    6.7317    3.9948    0.0000 C   0  0  0  0  0  0  0  0  0  0  0  0
    9.1036    3.4906    0.0000 C   0  0  0  0  0  0  0  0  0  0  0  0
  2  3  1  0  0  0  0
  3  4  1  0  0  0  0
  4  5  1  0  0  0  0
  1  5  1  0  0  0  0
  1  2  1  1  0  0  0
  6  7  1  0  0  0  0
  7  8  1  0  0  0  0
  8  9  1  0  0  0  0
  9 10  1  0  0  0  0
 11 12  1  0  0  0  0
 12 13  2  0  0  0  0
 13 14  1  0  0  0  0
 10 14  2  0  0  0  0
  9 11  2  0  0  0  0
  8 15  2  0  0  0  0
  7 16  1  0  0  0  0
 16 17  1  0  0  0  0
 18 19  2  0  0  0  0
 19 20  1  0  0  0  0
 20 21  1  0  0  0  0
 17 21  2  0  0  0  0
 17 18  1  0  0  0  0
  1 10  1  0  0  0  0
 13 22  1  0  0  0  0
 20 23  1  0  0  0  0
  3 24  1  0  0  0  0
 25 26  1  0  0  0  0
 26 27  2  0  0  0  0
 27 28  1  0  0  0  0
 28 29  2  0  0  0  0
 24 29  1  0  0  0  0
 24 25  2  0  0  0  0
 30 31  2  0  0  0  0
 31 32  1  0  0  0  0
 32 33  2  0  0  0  0
 29 33  1  0  0  0  0
 28 30  1  0  0  0  0
  2 34  2  0  0  0  0
  5 35  1  1  0  0  0
 35 36  1  0  0  0  0
 36 37  1  0  0  0  0
 37 38  1  0  0  0  0
 37 39  1  0  0  0  0
  1  6  1  0  0  0  0
M  END
> <From>
www.bindingDB.org

> <BindingDB Reactant_set_id>
1515160

> <Ligand InChI>


> <Ligand InChI Key>


> <BindingDB MonomerID>
736193

> <BindingDB Ligand Name>
(4S,4'S)-6-chloro-4'-[(isopropylamino)methyl]-1'-(4-isoquinolyl)-2-[(1-methyltriazol-4-yl)methyl]spiro[3H-isoquinoUne-4,3'-pyrrolidine]-1,2,-dione::WO2025125695, Example 1

> <Target Name>
Replicase polyprotein 1ab

> <Target Source Organism According to Curator or DataSource>
Severe acute respiratory syndrome coronavirus

> <Ki (nM)>


> <IC50 (nM)>
 75

> <Kd (nM)>


> <EC50 (nM)>


> <kon (M-1-s-1)>


> <koff (s-1)>


> <pH>


> <Temp C>


> <Curation/DataSource>
WIPO

> <Article DOI>


> <BindingDB Entry DOI>
10.7270/Q2805754

> <PMID>


> <PubChem AID>


> <Patent Number>
WO2025125695

> <Authors>
GRIFFEN, EJ; COUSINS, DL; STACEY-JEPSON, JE; LEFKER, BA; ROBINSON, RP

> <Date of publication>
4/23/2025

> <Date in BindingDB>
8/28/2025

> <Institution>
Medchemica

> <Link to Ligand in BindingDB>
http://www.bindingdb.org/bind/chemsearch/marvin/MolStructure.jsp?monomerid=736193

> <Link to Ligand-Target Pair in BindingDB>
http://www.bindingdb.org/rwd/jsp/dbsearch/PrimarySearch_ki.jsp?energyterm=kJ/mole&tag=pol&polymerid=4753&target=Replicase+polyprotein+1ab&column=ki&startPg=0&Increment=50&submit=Search

> <Link to Ligand-Target Pair in BindingDB>
http://www.bindingdb.org/rwd/jsp/dbsearch/PrimarySearch_ki.jsp?energyterm=kJ/mole&tag=r21&monomerid=736193&enzyme=Replicase+polyprotein+1ab&column=ki&startPg=0&Increment=50&submit=Search

> <Ligand HET ID in PDB>


> <PDB ID(s) for Ligand-Target Complex>


> <PubChem CID of Ligand>
175670502

> <PubChem SID of Ligand>
518296816

> <ChEBI ID of Ligand>


> <ChEMBL ID of Ligand>


> <DrugBank ID of Ligand>


> <IUPHAR_GRAC ID of Ligand>


> <KEGG ID of Ligand>


> <ZINC ID of Ligand>


> <Number of Protein Chains in Target (bigger than 1 implies a multichain complex)>
1

> <BindingDB Target Chain Sequence>
MESLVLGVNEKTHVQLSLPVLQVRDVLVRGFGDSVEEALSEAREHLKNGTCGLVELEKGV LPQLEQPYVFIKRSDALSTNHGHKVVELVAEMDGIQYGRSGITLGVLVPHVGETPIAYRN VLLRKNGNKGAGGHSYGIDLKSYDLGDELGTDPIEDYEQNWNTKHGSGALRELTRELNGG AVTRYVDNNFCGPDGYPLDCIKDFLARAGKSMCTLSEQLDYIESKRGVYCCRDHEHEIAW FTERSDKSYEHQTPFEIKSAKKFDTFKGECPKFVFPLNSKVKVIQPRVEKKKTEGFMGRI RSVYPVASPQECNNMHLSTLMKCNHCDEVSWQTCDFLKATCEHCGTENLVIEGPTTCGYL PTNAVVKMPCPACQDPEIGPEHSVADYHNHSNIETRLRKGGRTRCFGGCVFAYVGCYNKR AYWVPRASADIGSGHTGITGDNVETLNEDLLEILSRERVNINIVGDFHLNEEVAIILASF SASTSAFIDTIKSLDYKSFKTIVESCGNYKVTKGKPVKGAWNIGQQRSVLTPLCGFPSQA AGVIRSIFARTLDAANHSIPDLQRAAVTILDGISEQSLRLVDAMVYTSDLLTNSVIIMAY VTGGLVQQTSQWLSNLLGTTVEKLRPIFEWIEAKLSAGVEFLKDAWEILKFLITGVFDIV KGQIQVASDNIKDCVKCFIDVVNKALEMCIDQVTIAGAKLRSLNLGEVFIAQSKGLYRQC IRGKEQLQLLMPLKAPKEVTFLEGDSHDTVLTSEEVVLKNGELEALETPVDSFTNGAIVG TPVCVNGLMLLEIKDKEQYCALSPGLLATNNVFRLKGGAPIKGVTFGEDTVWEVQGYKNV RITFELDERVDKVLNEKCSVYTVESGTEVTEFACVVAEAVVKTLQPVSDLLTNMGIDLDE WSVATFYLFDDAGEENFSSRMYCSFYPPDEEEEDDAECEEEEIDETCEHEYGTEDDYQGL PLEFGASAETVRVEEEEEEDWLDDTTEQSEIEPEPEPTPEEPVNQFTGYLKLTDNVAIKC VDIVKEAQSANPMVIVNAANIHLKHGGGVAGALNKATNGAMQKESDDYIKLNGPLTVGGS CLLSGHNLAKKCLHVVGPNLNAGEDIQLLKAAYENFNSQDILLAPLLSAGIFGAKPLQSL QVCVQTVRTQVYIAVNDKALYEQVVMDYLDNLKPRVEAPKQEEPPNTEDSKTEEKSVVQK PVDVKPKIKACIDEVTTTLEETKFLTNKLLLFADINGKLYHDSQNMLRGEDMSFLEKDAP YMVGDVITSGDITCVVIPSKKAGGTTEMLSRALKKVPVDEYITTYPGQGCAGYTLEEAKT ALKKCKSAFYVLPSEAPNAKEEILGTVSWNLREMLAHAEETRKLMPICMDVRAIMATIQR KYKGIKIQEGIVDYGVRFFFYTSKEPVASIITKLNSLNEPLVTMPIGYVTHGFNLEEAAR CMRSLKAPAVVSVSSPDAVTTYNGYLTSSSKTSEEHFVETVSLAGSYRDWSYSGQRTELG VEFLKRGDKIVYHTLESPVEFHLDGEVLSLDKLKSLLSLREVKTIKVFTTVDNTNLHTQL VDMSMTYGQQFGPTYLDGADVTKIKPHVNHEGKTFFVLPSDDTLRSEAFEYYHTLDESFL GRYMSALNHTKKWKFPQVGGLTSIKWADNNCYLSSVLLALQQLEVKFNAPALQEAYYRAR AGDAANFCALILAYSNKTVGELGDVRETMTHLLQHANLESAKRVLNVVCKHCGQKTTTLT GVEAVMYMGTLSYDNLKTGVSIPCVCGRDATQYLVQQESSFVMMSAPPAEYKLQQGTFLC ANEYTGNYQCGHYTHITAKETLYRIDGAHLTKMSEYKGPVTDVFYKETSYTTTIKPVSYK LDGVTYTEIEPKLDGYYKKDNAYYTEQPIDLVPTQPLPNASFDNFKLTCSNTKFADDLNQ MTGFTKPASRELSVTFFPDLNGDVVAIDYRHYSASFKKGAKLLHKPIVWHINQATTKTTF KPNTWCLRCLWSTKPVDTSNSFEVLAVEDTQGMDNLACESQQPTSEEVVENPTIQKEVIE CDVKTTEVVGNVILKPSDEGVKVTQELGHEDLMAAYVENTSITIKKPNELSLALGLKTIA THGIAAINSVPWSKILAYVKPFLGQAAITTSNCAKRLAQRVFNNYMPYVFTLLFQLCTFT KSTNSRIRASLPTTIAKNSVKSVAKLCLDAGINYVKSPKFSKLFTIAMWLLLLSICLGSL ICVTAAFGVLLSNFGAPSYCNGVRELYLNSSNVTTMDFCEGSFPCSICLSGLDSLDSYPA LETIQVTISSYKLDLTILGLAAEWVLAYMLFTKFFYLLGLSAIMQVFFGYFASHFISNSW LMWFIISIVQMAPVSAMVRMYIFFASFYYIWKSYVHIMDGCTSSTCMMCYKRNRATRVEC TTIVNGMKRSFYVYANGGRGFCKTHNWNCLNCDTFCTGSTFISDEVARDLSLQFKRPINP TDQSSYIVDSVAVKNGALHLYFDKAGQKTYERHPLSHFVNLDNLRANNTKGSLPINVIVF DGKSKCDESASKSASVYYSQLMCQPILLLDQALVSDVGDSTEVSVKMFDAYVDTFSATFS VPMEKLKALVATAHSELAKGVALDGVLSTFVSAARQGVVDTDVDTKDVIECLKLSHHSDL EVTGDSCNNFMLTYNKVENMTPRDLGACIDCNARHINAQVAKSHNVSLIWNVKDYMSLSE QLRKQIRSAAKKNNIPFRLTCATTRQVVNVITTKISLKGGKIVSTCFKLMLKATLLCVLA ALVCYIVMPVHTLSIHDGYTNEIIGYKAIQDGVTRDIISTDDCFANKHAGFDAWFSQRGG SYKNDKSCPVVAAIITREIGFIVPGLPGTVLRAINGDFLHFLPRVFSAVGNICYTPSKLI EYSDFATSACVLAAECTIFKDAMGKPVPYCYDTNLLEGSISYSELRPDTRYVLMDGSIIQ FPNTYLEGSVRVVTTFDAEYCRHGTCERSEVGICLSTSGRWVLNNEHYRALSGVFCGVDA MNLIANIFTPLVQPVGALDVSASVVAGGIIAILVTCAAYYFMKFRRVFGEYNHVVAANAL LFLMSFTILCLVPAYSFLPGVYSVFYLYLTFYFTNDVSFLAHLQWFAMFSPIVPFWITAI YVFCISLKHCHWFFNNYLRKRVMFNGVTFSTFEEAALCTFLLNKEMYLKLRSETLLPLTQ YNRYLALYNKYKYFSGALDTTSYREAACCHLAKALNDFSNSGADVLYQPPQTSITSAVLQ SGFRKMAFPSGKVEGCMVQVTCGTTTLNGLWLDDTVYCPRHVICTAEDMLNPNYEDLLIR KSNHSFLVQAGNVQLRVIGHSMQNCLLRLKVDTSNPKTPKYKFVRIQPGQTFSVLACYNG SPSGVYQCAMRPNHTIKGSFLNGSCGSVGFNIDYDCVSFCYMHHMELPTGVHAGTDLEGK FYGPFVDRQTAQAAGTDTTITLNVLAWLYAAVINGDRWFLNRFTTTLNDFNLVAMKYNYE PLTQDHVDILGPLSAQTGIAVLDMCAALKELLQNGMNGRTILGSTILEDEFTPFDVVRQC SGVTFQGKFKKIVKGTHHWMLLTFLTSLLILVQSTQWSLFFFVYENAFLPFTLGIMAIAA CAMLLVKHKHAFLCLFLLPSLATVAYFNMVYMPASWVMRIMTWLELADTSLSGYRLKDCV MYASALVLLILMTARTVYDDAARRVWTLMNVITLVYKVYYGNALDQAISMWALVISVTSN YSGVVTTIMFLARAIVFVCVEYYPLLFITGNTLQCIMLVYCFLGYCCCCYFGLFCLLNRY FRLTLGVYDYLVSTQEFRYMNSQGLLPPKSSIDAFKLNIKLLGIGGKPCIKVATVQSKMS DVKCTSVVLLSVLQQLRVESSSKLWAQCVQLHNDILLAKDTTEAFEKMVSLLSVLLSMQG AVDINRLCEEMLDNRATLQAIASEFSSLPSYAAYATAQEAYEQAVANGDSEVVLKKLKKS LNVAKSEFDRDAAMQRKLEKMADQAMTQMYKQARSEDKRAKVTSAMQTMLFTMLRKLDND ALNNIINNARDGCVPLNIIPLTTAAKLMVVVPDYGTYKNTCDGNTFTYASALWEIQQVVD ADSKIVQLSEINMDNSPNLAWPLIVTALRANSAVKLQNNELSPVALRQMSCAAGTTQTAC TDDNALAYYNNSKGGRFVLALLSDHQDLKWARFPKSDGTGTIYTELEPPCRFVTDTPKGP KVKYLYFIKGLNNLNRGMVLGSLAATVRLQAGNATEVPANSTVLSFCAFAVDPAKAYKDY LASGGQPITNCVKMLCTHTGTGQAITVTPEANMDQESFGGASCCLYCRCHIDHPNPKGFC DLKGKYVQIPTTCANDPVGFTLRNTVCTVCGMWKGYGCSCDQLREPLMQSADASTFLNRV CGVSAARLTPCGTGTSTDVVYRAFDIYNEKVAGFAKFLKTNCCRFQEKDEEGNLLDSYFV VKRHTMSNYQHEETIYNLVKDCPAVAVHDFFKFRVDGDMVPHISRQRLTKYTMADLVYAL RHFDEGNCDTLKEILVTYNCCDDDYFNKKDWYDFVENPDILRVYANLGERVRQSLLKTVQ FCDAMRDAGIVGVLTLDNQDLNGNWYDFGDFVQVAPGCGVPIVDSYYSLLMPILTLTRAL AAESHMDADLAKPLIKWDLLKYDFTEERLCLFDRYFKYWDQTYHPNCINCLDDRCILHCA NFNVLFSTVFPPTSFGPLVRKIFVDGVPFVVSTGYHFRELGVVHNQDVNLHSSRLSFKEL LVYAADPAMHAASGNLLLDKRTTCFSVAALTNNVAFQTVKPGNFNKDFYDFAVSKGFFKE GSSVELKHFFFAQDGNAAISDYDYYRYNLPTMCDIRQLLFVVEVVDKYFDCYDGGCINAN QVIVNNLDKSAGFPFNKWGKARLYYDSMSYEDQDALFAYTKRNVIPTITQMNLKYAISAK NRARTVAGVSICSTMTNRQFHQKLLKSIAATRGATVVIGTSKFYGGWHNMLKTVYSDVET PHLMGWDYPKCDRAMPNMLRIMASLVLARKHNTCCNLSHRFYRLANECAQVLSEMVMCGG SLYVKPGGTSSGDATTAYANSVFNICQAVTANVNALLSTDGNKIADKYVRNLQHRLYECL YRNRDVDHEFVDEFYAYLRKHFSMMILSDDAVVCYNSNYAAQGLVASIKNFKAVLYYQNN VFMSEAKCWTETDLTKGPHEFCSQHTMLVKQGDDYVYLPYPDPSRILGAGCFVDDIVKTD GTLMIERFVSLAIDAYPLTKHPNQEYADVFHLYLQYIRKLHDELTGHMLDMYSVMLTNDN TSRYWEPEFYEAMYTPHTVLQAVGACVLCNSQTSLRCGACIRRPFLCCKCCYDHVISTSH KLVLSVNPYVCNAPGCDVTDVTQLYLGGMSYYCKSHKPPISFPLCANGQVFGLYKNTCVG SDNVTDFNAIATCDWTNAGDYILANTCTERLKLFAAETLKATEETFKLSYGIATVREVLS DRELHLSWEVGKPRPPLNRNYVFTGYRVTKNSKVQIGEYTFEKGDYGDAVVYRGTTTYKL NVGDYFVLTSHTVMPLSAPTLVPQEHYVRITGLYPTLNISDEFSSNVANYQKVGMQKYST LQGPPGTGKSHFAIGLALYYPSARIVYTACSHAAVDALCEKALKYLPIDKCSRIIPARAR VECFDKFKVNSTLEQYVFCTVNALPETTADIVVFDEISMATNYDLSVVNARLRAKHYVYI GDPAQLPAPRTLLTKGTLEPEYFNSVCRLMKTIGPDMFLGTCRRCPAEIVDTVSALVYDN KLKAHKDKSAQCFKMFYKGVITHDVSSAINRPQIGVVREFLTRNPAWRKAVFISPYNSQN AVASKILGLPTQTVDSSQGSEYDYVIFTQTTETAHSCNVNRFNVAITRAKIGILCIMSDR DLYDKLQFTSLEIPRRNVATLQAENVTGLFKDCSKIITGLHPTQAPTHLSVDIKFKTEGL CVDIPGIPKDMTYRRLISMMGFKMNYQVNGYPNMFITREEAIRHVRAWIGFDVEGCHATR DAVGTNLPLQLGFSTGVNLVAVPTGYVDTENNTEFTRVNAKPPPGDQFKHLIPLMYKGLP WNVVRIKIVQMLSDTLKGLSDRVVFVLWAHGFELTSMKYFVKIGPERTCCLCDKRATCFS TSSDTYACWNHSVGFDYVYNPFMIDVQQWGFTGNLQSNHDQHCQVHGNAHVASCDAIMTR CLAVHECFVKRVDWSVEYPIIGDELRVNSACRKVQHMVVKSALLADKFPVLHDIGNPKAI KCVPQAEVEWKFYDAQPCSDKAYKIEELFYSYATHHDKFTDGVCLFWNCNVDRYPANAIV CRFDTRVLSNLNLPGCDGGSLYVNKHAFHTPAFDKSAFTNLKQLPFFYYSDSPCESHGKQ VVSDIDYVPLKSATCITRCNLGGAVCRHHANEYRQYLDAYNMMISAGFSLWIYKQFDTYN LWNTFTRLQSLENVAYNVVNKGHFDGHAGEAPVSIINNAVYTKVDGIDVEIFENKTTLPV NVAFELWAKRNIKPVPEIKILNNLGVDIAANTVIWDYKREAPAHVSTIGVCTMTDIAKKP TESACSSLTVLFDGRVEGQVDLFRNARNGVLITEGSVKGLTPSKGPAQASVNGVTLIGES VKTQFNYFKKVDGIIQQLPETYFTQSRDLEDFKPRSQMETDFLELAMDEFIQRYKLEGYA FEHIVYGDFSHGQLGGLHLMIGLAKRSQDSPLKLEDFIPMDSTVKNYFITDAQTGSSKCV CSVIDLLLDDFVEIIKSQDLSVISKVVKVTIDYAEISFMLWCKDGHVETFYPKLQASQAW QPGVAMPNLYKMQRMLLEKCDLQNYGENAVIPKGIMMNVAKYTQLCQYLNTLTLAVPYNM RVIHFGAGSDKGVAPGTAVLRQWLPTGTLLVDSDLNDFVSDADSTLIGDCATVHTANKWD LIISDMYDPRTKHVTKENDSKEGFFTYLCGFIKQKLALGGSIAVKITEHSWNADLYKLMG HFSWWTAFVTNVNASSSEAFLIGANYLGKPKEQIDGYTMHANYIFWRNTNPIQLSSYSLF DMSKFPLKLRGTAVMSLKENQINDMIYSLLEKGRLIIRENNRVVVSSDILVNN

> <PDB ID(s) of Target Chain>
9CGV,8XKO,7DTE,7C2K,9PZ0,9PYZ,9PYW,9BLF,6JYT,5C8S,5C8U,5C8T,7FAC,9NJG,9NIO,9NHU,9NHA,9NFP,9NAZ,7QIF,7QGI,5SMK,5SMI,5SMH,5SMG,5SMF,5SME,5SMD,5SMC,5SMB,5SMA,5SM9,5SM8,5SM7,5SM6,5SM5,5SM4,5SM3,5SM2,5SM1,5SM0,5SLZ,5SLY,5SLX,5SLW,5SLV,5SLU,5SLT,5SLS,5SLR,5SLQ,5SLP,5SLO,5SLN,5SLM,5SLL,5SLK,5SLJ,5SLI,5SLH,5SLG,5SLF,5SLE,5SLD,5SLC,5SLB,5SLA,5SL9,5SL8,5SL7,5SL6,5SL5,5SL4,5SL3,5SL2,5SL1,5SL0,5SKZ,5SKY,5SKX,5SKW,7R2V,2OZK,5TL7,5TL6,3E9S,4OW0,4OVZ,4MM3,3MJ5,2FE8,5Y3Q,5Y3E,9CEH,2GTB,2GT8,2A5K,7ZQW,7XAX,7RC1,7LMJ,7LMI,7LMH,7LMG,7LCQ,7LCP,7EO8,7END,7DQZ

> <UniProt (SwissProt) Recommended Name of Target Chain>
Replicase polyprotein 1ab

> <UniProt (SwissProt) Entry Name of Target Chain>
R1AB_SARS

> <UniProt (SwissProt) Primary ID of Target Chain>
P0C6X7

> <UniProt (SwissProt) Secondary ID(s) of Target Chain>
P59641 Q6WGN0 Q7T697 Q808C0 Q80BV7 Q80BV8 Q80E51

> <UniProt (SwissProt) Alternative ID(s) of Target Chain>


> <UniProt (TrEMBL) Submitted Name of Target Chain>


> <UniProt (TrEMBL) Entry Name of Target Chain>


> <UniProt (TrEMBL) Primary ID of Target Chain>


> <UniProt (TrEMBL) Secondary ID(s) of Target Chain>


> <UniProt (TrEMBL) Alternative ID(s) of Target Chain>


$$$$

JME 2024-04-29 Tue Aug 26 14:52:43 GMT-700 2025

 38 43  0  0  0  0  0  0  0  0999 V2000
    4.8497    7.1239    0.0000 C   0  0  0  0  0  0  0  0  0  0  0  0
    3.7171    6.3010    0.0000 C   0  0  0  0  0  0  0  0  0  0  0  0
    4.1497    4.9695    0.0000 N   0  0  0  0  0  0  0  0  0  0  0  0
    5.5497    4.9695    0.0000 C   0  0  0  0  0  0  0  0  0  0  0  0
    5.9824    6.3010    0.0000 C   0  0  0  0  0  0  0  0  0  0  0  0
    6.0622    7.8239    0.0000 C   0  0  0  0  0  0  0  0  0  0  0  0
    6.0622    9.2239    0.0000 N   0  0  0  0  0  0  0  0  0  0  0  0
    4.8497    9.9239    0.0000 C   0  0  0  0  0  0  0  0  0  0  0  0
    3.6373    9.2239    0.0000 C   0  0  0  0  0  0  0  0  0  0  0  0
    3.6373    7.8239    0.0000 C   0  0  0  0  0  0  0  0  0  0  0  0
    2.4249    9.9239    0.0000 C   0  0  0  0  0  0  0  0  0  0  0  0
    1.2124    9.2239    0.0000 C   0  0  0  0  0  0  0  0  0  0  0  0
    1.2124    7.8239    0.0000 C   0  0  0  0  0  0  0  0  0  0  0  0
    2.4249    7.1239    0.0000 C   0  0  0  0  0  0  0  0  0  0  0  0
    4.8497   11.3239    0.0000 O   0  0  0  0  0  0  0  0  0  0  0  0
    7.2746    9.9239    0.0000 C   0  0  0  0  0  0  0  0  0  0  0  0
    8.4870    9.2239    0.0000 C   0  0  0  0  0  0  0  0  0  0  0  0
    8.6334    7.8316    0.0000 O   0  0  0  0  0  0  0  0  0  0  0  0
   10.0028    7.5405    0.0000 N   0  0  0  0  0  0  0  0  0  0  0  0
   10.7028    8.7529    0.0000 C   0  0  0  0  0  0  0  0  0  0  0  0
    9.7660    9.7933    0.0000 C   0  0  0  0  0  0  0  0  0  0  0  0
    0.0000    7.1239    0.0000 Cl  0  0  0  0  0  0  0  0  0  0  0  0
   12.0951    8.8993    0.0000 C   0  0  0  0  0  0  0  0  0  0  0  0
    3.3268    3.8369    0.0000 C   0  0  0  0  0  0  0  0  0  0  0  0
    1.9345    3.9832    0.0000 C   0  0  0  0  0  0  0  0  0  0  0  0
    1.1116    2.8506    0.0000 N   0  0  0  0  0  0  0  0  0  0  0  0
    1.6810    1.5716    0.0000 C   0  0  0  0  0  0  0  0  0  0  0  0
    3.0734    1.4253    0.0000 C   0  0  0  0  0  0  0  0  0  0  0  0
    3.8963    2.5579    0.0000 C   0  0  0  0  0  0  0  0  0  0  0  0
    3.6428    0.1463    0.0000 C   0  0  0  0  0  0  0  0  0  0  0  0
    5.0351    0.0000    0.0000 C   0  0  0  0  0  0  0  0  0  0  0  0
    5.8580    1.1326    0.0000 C   0  0  0  0  0  0  0  0  0  0  0  0
    5.2886    2.4116    0.0000 C   0  0  0  0  0  0  0  0  0  0  0  0
    2.3205    6.2039    0.0000 O   0  0  0  0  0  0  0  0  0  0  0  0
    7.3138    6.7336    0.0000 C   0  0  0  0  0  0  0  0  0  0  0  0
    8.3542    5.7968    0.0000 N   0  0  0  0  0  0  0  0  0  0  0  0
    8.0632    4.4274    0.0000 C   0  0  0  0  0  0  0  0  0  0  0  0
    9.1036    3.4906    0.0000 C   0  0  0  0  0  0  0  0  0  0  0  0
  2  3  1  0  0  0  0
  3  4  1  0  0  0  0
  4  5  1  0  0  0  0
  1  5  1  0  0  0  0
  1  2  1  1  0  0  0
  6  7  1  0  0  0  0
  7  8  1  0  0  0  0
  8  9  1  0  0  0  0
  9 10  1  0  0  0  0
 11 12  1  0  0  0  0
 12 13  2  0  0  0  0
 13 14  1  0  0  0  0
 10 14  2  0  0  0  0
  9 11  2  0  0  0  0
  8 15  2  0  0  0  0
  7 16  1  0  0  0  0
 16 17  1  0  0  0  0
 18 19  1  0  0  0  0
 19 20  2  0  0  0  0
 20 21  1  0  0  0  0
 17 21  2  0  0  0  0
 17 18  1  0  0  0  0
  1 10  1  0  0  0  0
 13 22  1  0  0  0  0
 20 23  1  0  0  0  0
  3 24  1  0  0  0  0
 25 26  1  0  0  0  0
 26 27  2  0  0  0  0
 27 28  1  0  0  0  0
 28 29  2  0  0  0  0
 24 29  1  0  0  0  0
 24 25  2  0  0  0  0
 30 31  2  0  0  0  0
 31 32  1  0  0  0  0
 32 33  2  0  0  0  0
 29 33  1  0  0  0  0
 28 30  1  0  0  0  0
  2 34  2  0  0  0  0
  5 35  1  1  0  0  0
 35 36  1  0  0  0  0
 36 37  1  0  0  0  0
 37 38  1  0  0  0  0
  1  6  1  0  0  0  0
M  END
> <From>
www.bindingDB.org

> <BindingDB Reactant_set_id>
1515161

> <Ligand InChI>


> <Ligand InChI Key>


> <BindingDB MonomerID>
736194

> <BindingDB Ligand Name>
(4S,4'S)-6-chloro-4,-[(ethylamino)methyl]-1,-(4-isoquinolyl)-2-[(3-methylisoxazol-5-yl)methyl]spiro[3H-isoquinoUne-4,3'-pyrrolidine]-1,2,-dione::WO2025125695, Example 2

> <Target Name>
Replicase polyprotein 1ab

> <Target Source Organism According to Curator or DataSource>
Severe acute respiratory syndrome coronavirus

> <Ki (nM)>


> <IC50 (nM)>
 64

> <Kd (nM)>


> <EC50 (nM)>


> <kon (M-1-s-1)>


> <koff (s-1)>


> <pH>


> <Temp C>


> <Curation/DataSource>
WIPO

> <Article DOI>


> <BindingDB Entry DOI>
10.7270/Q2805754

> <PMID>


> <PubChem AID>


> <Patent Number>
WO2025125695

> <Authors>
GRIFFEN, EJ; COUSINS, DL; STACEY-JEPSON, JE; LEFKER, BA; ROBINSON, RP

> <Date of publication>
4/23/2025

> <Date in BindingDB>
8/28/2025

> <Institution>
Medchemica

> <Link to Ligand in BindingDB>
http://www.bindingdb.org/bind/chemsearch/marvin/MolStructure.jsp?monomerid=736194

> <Link to Ligand-Target Pair in BindingDB>
http://www.bindingdb.org/rwd/jsp/dbsearch/PrimarySearch_ki.jsp?energyterm=kJ/mole&tag=pol&polymerid=4753&target=Replicase+polyprotein+1ab&column=ki&startPg=0&Increment=50&submit=Search

> <Link to Ligand-Target Pair in BindingDB>
http://www.bindingdb.org/rwd/jsp/dbsearch/PrimarySearch_ki.jsp?energyterm=kJ/mole&tag=r21&monomerid=736194&enzyme=Replicase+polyprotein+1ab&column=ki&startPg=0&Increment=50&submit=Search

> <Ligand HET ID in PDB>


> <PDB ID(s) for Ligand-Target Complex>


> <PubChem CID of Ligand>
176394987

> <PubChem SID of Ligand>
518296817

> <ChEBI ID of Ligand>


> <ChEMBL ID of Ligand>


> <DrugBank ID of Ligand>


> <IUPHAR_GRAC ID of Ligand>


> <KEGG ID of Ligand>


> <ZINC ID of Ligand>


> <Number of Protein Chains in Target (bigger than 1 implies a multichain complex)>
1

> <BindingDB Target Chain Sequence>
MESLVLGVNEKTHVQLSLPVLQVRDVLVRGFGDSVEEALSEAREHLKNGTCGLVELEKGV LPQLEQPYVFIKRSDALSTNHGHKVVELVAEMDGIQYGRSGITLGVLVPHVGETPIAYRN VLLRKNGNKGAGGHSYGIDLKSYDLGDELGTDPIEDYEQNWNTKHGSGALRELTRELNGG AVTRYVDNNFCGPDGYPLDCIKDFLARAGKSMCTLSEQLDYIESKRGVYCCRDHEHEIAW FTERSDKSYEHQTPFEIKSAKKFDTFKGECPKFVFPLNSKVKVIQPRVEKKKTEGFMGRI RSVYPVASPQECNNMHLSTLMKCNHCDEVSWQTCDFLKATCEHCGTENLVIEGPTTCGYL PTNAVVKMPCPACQDPEIGPEHSVADYHNHSNIETRLRKGGRTRCFGGCVFAYVGCYNKR AYWVPRASADIGSGHTGITGDNVETLNEDLLEILSRERVNINIVGDFHLNEEVAIILASF SASTSAFIDTIKSLDYKSFKTIVESCGNYKVTKGKPVKGAWNIGQQRSVLTPLCGFPSQA AGVIRSIFARTLDAANHSIPDLQRAAVTILDGISEQSLRLVDAMVYTSDLLTNSVIIMAY VTGGLVQQTSQWLSNLLGTTVEKLRPIFEWIEAKLSAGVEFLKDAWEILKFLITGVFDIV KGQIQVASDNIKDCVKCFIDVVNKALEMCIDQVTIAGAKLRSLNLGEVFIAQSKGLYRQC IRGKEQLQLLMPLKAPKEVTFLEGDSHDTVLTSEEVVLKNGELEALETPVDSFTNGAIVG TPVCVNGLMLLEIKDKEQYCALSPGLLATNNVFRLKGGAPIKGVTFGEDTVWEVQGYKNV RITFELDERVDKVLNEKCSVYTVESGTEVTEFACVVAEAVVKTLQPVSDLLTNMGIDLDE WSVATFYLFDDAGEENFSSRMYCSFYPPDEEEEDDAECEEEEIDETCEHEYGTEDDYQGL PLEFGASAETVRVEEEEEEDWLDDTTEQSEIEPEPEPTPEEPVNQFTGYLKLTDNVAIKC VDIVKEAQSANPMVIVNAANIHLKHGGGVAGALNKATNGAMQKESDDYIKLNGPLTVGGS CLLSGHNLAKKCLHVVGPNLNAGEDIQLLKAAYENFNSQDILLAPLLSAGIFGAKPLQSL QVCVQTVRTQVYIAVNDKALYEQVVMDYLDNLKPRVEAPKQEEPPNTEDSKTEEKSVVQK PVDVKPKIKACIDEVTTTLEETKFLTNKLLLFADINGKLYHDSQNMLRGEDMSFLEKDAP YMVGDVITSGDITCVVIPSKKAGGTTEMLSRALKKVPVDEYITTYPGQGCAGYTLEEAKT ALKKCKSAFYVLPSEAPNAKEEILGTVSWNLREMLAHAEETRKLMPICMDVRAIMATIQR KYKGIKIQEGIVDYGVRFFFYTSKEPVASIITKLNSLNEPLVTMPIGYVTHGFNLEEAAR CMRSLKAPAVVSVSSPDAVTTYNGYLTSSSKTSEEHFVETVSLAGSYRDWSYSGQRTELG VEFLKRGDKIVYHTLESPVEFHLDGEVLSLDKLKSLLSLREVKTIKVFTTVDNTNLHTQL VDMSMTYGQQFGPTYLDGADVTKIKPHVNHEGKTFFVLPSDDTLRSEAFEYYHTLDESFL GRYMSALNHTKKWKFPQVGGLTSIKWADNNCYLSSVLLALQQLEVKFNAPALQEAYYRAR AGDAANFCALILAYSNKTVGELGDVRETMTHLLQHANLESAKRVLNVVCKHCGQKTTTLT GVEAVMYMGTLSYDNLKTGVSIPCVCGRDATQYLVQQESSFVMMSAPPAEYKLQQGTFLC ANEYTGNYQCGHYTHITAKETLYRIDGAHLTKMSEYKGPVTDVFYKETSYTTTIKPVSYK LDGVTYTEIEPKLDGYYKKDNAYYTEQPIDLVPTQPLPNASFDNFKLTCSNTKFADDLNQ MTGFTKPASRELSVTFFPDLNGDVVAIDYRHYSASFKKGAKLLHKPIVWHINQATTKTTF KPNTWCLRCLWSTKPVDTSNSFEVLAVEDTQGMDNLACESQQPTSEEVVENPTIQKEVIE CDVKTTEVVGNVILKPSDEGVKVTQELGHEDLMAAYVENTSITIKKPNELSLALGLKTIA THGIAAINSVPWSKILAYVKPFLGQAAITTSNCAKRLAQRVFNNYMPYVFTLLFQLCTFT KSTNSRIRASLPTTIAKNSVKSVAKLCLDAGINYVKSPKFSKLFTIAMWLLLLSICLGSL ICVTAAFGVLLSNFGAPSYCNGVRELYLNSSNVTTMDFCEGSFPCSICLSGLDSLDSYPA LETIQVTISSYKLDLTILGLAAEWVLAYMLFTKFFYLLGLSAIMQVFFGYFASHFISNSW LMWFIISIVQMAPVSAMVRMYIFFASFYYIWKSYVHIMDGCTSSTCMMCYKRNRATRVEC TTIVNGMKRSFYVYANGGRGFCKTHNWNCLNCDTFCTGSTFISDEVARDLSLQFKRPINP TDQSSYIVDSVAVKNGALHLYFDKAGQKTYERHPLSHFVNLDNLRANNTKGSLPINVIVF DGKSKCDESASKSASVYYSQLMCQPILLLDQALVSDVGDSTEVSVKMFDAYVDTFSATFS VPMEKLKALVATAHSELAKGVALDGVLSTFVSAARQGVVDTDVDTKDVIECLKLSHHSDL EVTGDSCNNFMLTYNKVENMTPRDLGACIDCNARHINAQVAKSHNVSLIWNVKDYMSLSE QLRKQIRSAAKKNNIPFRLTCATTRQVVNVITTKISLKGGKIVSTCFKLMLKATLLCVLA ALVCYIVMPVHTLSIHDGYTNEIIGYKAIQDGVTRDIISTDDCFANKHAGFDAWFSQRGG SYKNDKSCPVVAAIITREIGFIVPGLPGTVLRAINGDFLHFLPRVFSAVGNICYTPSKLI EYSDFATSACVLAAECTIFKDAMGKPVPYCYDTNLLEGSISYSELRPDTRYVLMDGSIIQ FPNTYLEGSVRVVTTFDAEYCRHGTCERSEVGICLSTSGRWVLNNEHYRALSGVFCGVDA MNLIANIFTPLVQPVGALDVSASVVAGGIIAILVTCAAYYFMKFRRVFGEYNHVVAANAL LFLMSFTILCLVPAYSFLPGVYSVFYLYLTFYFTNDVSFLAHLQWFAMFSPIVPFWITAI YVFCISLKHCHWFFNNYLRKRVMFNGVTFSTFEEAALCTFLLNKEMYLKLRSETLLPLTQ YNRYLALYNKYKYFSGALDTTSYREAACCHLAKALNDFSNSGADVLYQPPQTSITSAVLQ SGFRKMAFPSGKVEGCMVQVTCGTTTLNGLWLDDTVYCPRHVICTAEDMLNPNYEDLLIR KSNHSFLVQAGNVQLRVIGHSMQNCLLRLKVDTSNPKTPKYKFVRIQPGQTFSVLACYNG SPSGVYQCAMRPNHTIKGSFLNGSCGSVGFNIDYDCVSFCYMHHMELPTGVHAGTDLEGK FYGPFVDRQTAQAAGTDTTITLNVLAWLYAAVINGDRWFLNRFTTTLNDFNLVAMKYNYE PLTQDHVDILGPLSAQTGIAVLDMCAALKELLQNGMNGRTILGSTILEDEFTPFDVVRQC SGVTFQGKFKKIVKGTHHWMLLTFLTSLLILVQSTQWSLFFFVYENAFLPFTLGIMAIAA CAMLLVKHKHAFLCLFLLPSLATVAYFNMVYMPASWVMRIMTWLELADTSLSGYRLKDCV MYASALVLLILMTARTVYDDAARRVWTLMNVITLVYKVYYGNALDQAISMWALVISVTSN YSGVVTTIMFLARAIVFVCVEYYPLLFITGNTLQCIMLVYCFLGYCCCCYFGLFCLLNRY FRLTLGVYDYLVSTQEFRYMNSQGLLPPKSSIDAFKLNIKLLGIGGKPCIKVATVQSKMS DVKCTSVVLLSVLQQLRVESSSKLWAQCVQLHNDILLAKDTTEAFEKMVSLLSVLLSMQG AVDINRLCEEMLDNRATLQAIASEFSSLPSYAAYATAQEAYEQAVANGDSEVVLKKLKKS LNVAKSEFDRDAAMQRKLEKMADQAMTQMYKQARSEDKRAKVTSAMQTMLFTMLRKLDND ALNNIINNARDGCVPLNIIPLTTAAKLMVVVPDYGTYKNTCDGNTFTYASALWEIQQVVD ADSKIVQLSEINMDNSPNLAWPLIVTALRANSAVKLQNNELSPVALRQMSCAAGTTQTAC TDDNALAYYNNSKGGRFVLALLSDHQDLKWARFPKSDGTGTIYTELEPPCRFVTDTPKGP KVKYLYFIKGLNNLNRGMVLGSLAATVRLQAGNATEVPANSTVLSFCAFAVDPAKAYKDY LASGGQPITNCVKMLCTHTGTGQAITVTPEANMDQESFGGASCCLYCRCHIDHPNPKGFC DLKGKYVQIPTTCANDPVGFTLRNTVCTVCGMWKGYGCSCDQLREPLMQSADASTFLNRV CGVSAARLTPCGTGTSTDVVYRAFDIYNEKVAGFAKFLKTNCCRFQEKDEEGNLLDSYFV VKRHTMSNYQHEETIYNLVKDCPAVAVHDFFKFRVDGDMVPHISRQRLTKYTMADLVYAL RHFDEGNCDTLKEILVTYNCCDDDYFNKKDWYDFVENPDILRVYANLGERVRQSLLKTVQ FCDAMRDAGIVGVLTLDNQDLNGNWYDFGDFVQVAPGCGVPIVDSYYSLLMPILTLTRAL AAESHMDADLAKPLIKWDLLKYDFTEERLCLFDRYFKYWDQTYHPNCINCLDDRCILHCA NFNVLFSTVFPPTSFGPLVRKIFVDGVPFVVSTGYHFRELGVVHNQDVNLHSSRLSFKEL LVYAADPAMHAASGNLLLDKRTTCFSVAALTNNVAFQTVKPGNFNKDFYDFAVSKGFFKE GSSVELKHFFFAQDGNAAISDYDYYRYNLPTMCDIRQLLFVVEVVDKYFDCYDGGCINAN QVIVNNLDKSAGFPFNKWGKARLYYDSMSYEDQDALFAYTKRNVIPTITQMNLKYAISAK NRARTVAGVSICSTMTNRQFHQKLLKSIAATRGATVVIGTSKFYGGWHNMLKTVYSDVET PHLMGWDYPKCDRAMPNMLRIMASLVLARKHNTCCNLSHRFYRLANECAQVLSEMVMCGG SLYVKPGGTSSGDATTAYANSVFNICQAVTANVNALLSTDGNKIADKYVRNLQHRLYECL YRNRDVDHEFVDEFYAYLRKHFSMMILSDDAVVCYNSNYAAQGLVASIKNFKAVLYYQNN VFMSEAKCWTETDLTKGPHEFCSQHTMLVKQGDDYVYLPYPDPSRILGAGCFVDDIVKTD GTLMIERFVSLAIDAYPLTKHPNQEYADVFHLYLQYIRKLHDELTGHMLDMYSVMLTNDN TSRYWEPEFYEAMYTPHTVLQAVGACVLCNSQTSLRCGACIRRPFLCCKCCYDHVISTSH KLVLSVNPYVCNAPGCDVTDVTQLYLGGMSYYCKSHKPPISFPLCANGQVFGLYKNTCVG SDNVTDFNAIATCDWTNAGDYILANTCTERLKLFAAETLKATEETFKLSYGIATVREVLS DRELHLSWEVGKPRPPLNRNYVFTGYRVTKNSKVQIGEYTFEKGDYGDAVVYRGTTTYKL NVGDYFVLTSHTVMPLSAPTLVPQEHYVRITGLYPTLNISDEFSSNVANYQKVGMQKYST LQGPPGTGKSHFAIGLALYYPSARIVYTACSHAAVDALCEKALKYLPIDKCSRIIPARAR VECFDKFKVNSTLEQYVFCTVNALPETTADIVVFDEISMATNYDLSVVNARLRAKHYVYI GDPAQLPAPRTLLTKGTLEPEYFNSVCRLMKTIGPDMFLGTCRRCPAEIVDTVSALVYDN KLKAHKDKSAQCFKMFYKGVITHDVSSAINRPQIGVVREFLTRNPAWRKAVFISPYNSQN AVASKILGLPTQTVDSSQGSEYDYVIFTQTTETAHSCNVNRFNVAITRAKIGILCIMSDR DLYDKLQFTSLEIPRRNVATLQAENVTGLFKDCSKIITGLHPTQAPTHLSVDIKFKTEGL CVDIPGIPKDMTYRRLISMMGFKMNYQVNGYPNMFITREEAIRHVRAWIGFDVEGCHATR DAVGTNLPLQLGFSTGVNLVAVPTGYVDTENNTEFTRVNAKPPPGDQFKHLIPLMYKGLP WNVVRIKIVQMLSDTLKGLSDRVVFVLWAHGFELTSMKYFVKIGPERTCCLCDKRATCFS TSSDTYACWNHSVGFDYVYNPFMIDVQQWGFTGNLQSNHDQHCQVHGNAHVASCDAIMTR CLAVHECFVKRVDWSVEYPIIGDELRVNSACRKVQHMVVKSALLADKFPVLHDIGNPKAI KCVPQAEVEWKFYDAQPCSDKAYKIEELFYSYATHHDKFTDGVCLFWNCNVDRYPANAIV CRFDTRVLSNLNLPGCDGGSLYVNKHAFHTPAFDKSAFTNLKQLPFFYYSDSPCESHGKQ VVSDIDYVPLKSATCITRCNLGGAVCRHHANEYRQYLDAYNMMISAGFSLWIYKQFDTYN LWNTFTRLQSLENVAYNVVNKGHFDGHAGEAPVSIINNAVYTKVDGIDVEIFENKTTLPV NVAFELWAKRNIKPVPEIKILNNLGVDIAANTVIWDYKREAPAHVSTIGVCTMTDIAKKP TESACSSLTVLFDGRVEGQVDLFRNARNGVLITEGSVKGLTPSKGPAQASVNGVTLIGES VKTQFNYFKKVDGIIQQLPETYFTQSRDLEDFKPRSQMETDFLELAMDEFIQRYKLEGYA FEHIVYGDFSHGQLGGLHLMIGLAKRSQDSPLKLEDFIPMDSTVKNYFITDAQTGSSKCV CSVIDLLLDDFVEIIKSQDLSVISKVVKVTIDYAEISFMLWCKDGHVETFYPKLQASQAW QPGVAMPNLYKMQRMLLEKCDLQNYGENAVIPKGIMMNVAKYTQLCQYLNTLTLAVPYNM RVIHFGAGSDKGVAPGTAVLRQWLPTGTLLVDSDLNDFVSDADSTLIGDCATVHTANKWD LIISDMYDPRTKHVTKENDSKEGFFTYLCGFIKQKLALGGSIAVKITEHSWNADLYKLMG HFSWWTAFVTNVNASSSEAFLIGANYLGKPKEQIDGYTMHANYIFWRNTNPIQLSSYSLF DMSKFPLKLRGTAVMSLKENQINDMIYSLLEKGRLIIRENNRVVVSSDILVNN

> <PDB ID(s) of Target Chain>
9CGV,8XKO,7DTE,7C2K,9PZ0,9PYZ,9PYW,9BLF,6JYT,5C8S,5C8U,5C8T,7FAC,9NJG,9NIO,9NHU,9NHA,9NFP,9NAZ,7QIF,7QGI,5SMK,5SMI,5SMH,5SMG,5SMF,5SME,5SMD,5SMC,5SMB,5SMA,5SM9,5SM8,5SM7,5SM6,5SM5,5SM4,5SM3,5SM2,5SM1,5SM0,5SLZ,5SLY,5SLX,5SLW,5SLV,5SLU,5SLT,5SLS,5SLR,5SLQ,5SLP,5SLO,5SLN,5SLM,5SLL,5SLK,5SLJ,5SLI,5SLH,5SLG,5SLF,5SLE,5SLD,5SLC,5SLB,5SLA,5SL9,5SL8,5SL7,5SL6,5SL5,5SL4,5SL3,5SL2,5SL1,5SL0,5SKZ,5SKY,5SKX,5SKW,7R2V,2OZK,5TL7,5TL6,3E9S,4OW0,4OVZ,4MM3,3MJ5,2FE8,5Y3Q,5Y3E,9CEH,2GTB,2GT8,2A5K,7ZQW,7XAX,7RC1,7LMJ,7LMI,7LMH,7LMG,7LCQ,7LCP,7EO8,7END,7DQZ

> <UniProt (SwissProt) Recommended Name of Target Chain>
Replicase polyprotein 1ab

> <UniProt (SwissProt) Entry Name of Target Chain>
R1AB_SARS

> <UniProt (SwissProt) Primary ID of Target Chain>
P0C6X7

> <UniProt (SwissProt) Secondary ID(s) of Target Chain>
P59641 Q6WGN0 Q7T697 Q808C0 Q80BV7 Q80BV8 Q80E51

> <UniProt (SwissProt) Alternative ID(s) of Target Chain>


> <UniProt (TrEMBL) Submitted Name of Target Chain>


> <UniProt (TrEMBL) Entry Name of Target Chain>


> <UniProt (TrEMBL) Primary ID of Target Chain>


> <UniProt (TrEMBL) Secondary ID(s) of Target Chain>


> <UniProt (TrEMBL) Alternative ID(s) of Target Chain>


$$$$

JME 2024-04-29 Tue Aug 26 14:57:39 GMT-700 2025

 38 43  0  0  0  0  0  0  0  0999 V2000
    4.8497    7.1239    0.0000 C   0  0  0  0  0  0  0  0  0  0  0  0
    3.7171    6.3010    0.0000 C   0  0  0  0  0  0  0  0  0  0  0  0
    4.1497    4.9695    0.0000 N   0  0  0  0  0  0  0  0  0  0  0  0
    5.5497    4.9695    0.0000 C   0  0  0  0  0  0  0  0  0  0  0  0
    5.9824    6.3010    0.0000 C   0  0  0  0  0  0  0  0  0  0  0  0
    6.0622    7.8239    0.0000 C   0  0  0  0  0  0  0  0  0  0  0  0
    6.0622    9.2239    0.0000 N   0  0  0  0  0  0  0  0  0  0  0  0
    4.8497    9.9239    0.0000 C   0  0  0  0  0  0  0  0  0  0  0  0
    3.6373    9.2239    0.0000 C   0  0  0  0  0  0  0  0  0  0  0  0
    3.6373    7.8239    0.0000 C   0  0  0  0  0  0  0  0  0  0  0  0
    2.4249    9.9239    0.0000 C   0  0  0  0  0  0  0  0  0  0  0  0
    1.2124    9.2239    0.0000 C   0  0  0  0  0  0  0  0  0  0  0  0
    1.2124    7.8239    0.0000 C   0  0  0  0  0  0  0  0  0  0  0  0
    2.4249    7.1239    0.0000 C   0  0  0  0  0  0  0  0  0  0  0  0
    4.8497   11.3239    0.0000 O   0  0  0  0  0  0  0  0  0  0  0  0
    7.2746    9.9239    0.0000 C   0  0  0  0  0  0  0  0  0  0  0  0
    0.0000    7.1239    0.0000 Cl  0  0  0  0  0  0  0  0  0  0  0  0
    3.3268    3.8369    0.0000 C   0  0  0  0  0  0  0  0  0  0  0  0
    1.9345    3.9832    0.0000 C   0  0  0  0  0  0  0  0  0  0  0  0
    1.1116    2.8506    0.0000 N   0  0  0  0  0  0  0  0  0  0  0  0
    1.6810    1.5716    0.0000 C   0  0  0  0  0  0  0  0  0  0  0  0
    3.0734    1.4253    0.0000 C   0  0  0  0  0  0  0  0  0  0  0  0
    3.8963    2.5579    0.0000 C   0  0  0  0  0  0  0  0  0  0  0  0
    3.6428    0.1463    0.0000 C   0  0  0  0  0  0  0  0  0  0  0  0
    5.0351    0.0000    0.0000 C   0  0  0  0  0  0  0  0  0  0  0  0
    5.8580    1.1326    0.0000 C   0  0  0  0  0  0  0  0  0  0  0  0
    5.2886    2.4116    0.0000 C   0  0  0  0  0  0  0  0  0  0  0  0
    2.3205    6.2039    0.0000 O   0  0  0  0  0  0  0  0  0  0  0  0
    7.3138    6.7336    0.0000 C   0  0  0  0  0  0  0  0  0  0  0  0
    8.3542    5.7968    0.0000 N   0  0  0  0  0  0  0  0  0  0  0  0
    8.0632    4.4274    0.0000 C   0  0  0  0  0  0  0  0  0  0  0  0
    9.1036    3.4906    0.0000 C   0  0  0  0  0  0  0  0  0  0  0  0
    8.4871    9.2239    0.0000 C   0  0  0  0  0  0  0  0  0  0  0  0
    8.4871    7.8239    0.0000 C   0  0  0  0  0  0  0  0  0  0  0  0
    9.6995    7.1239    0.0000 C   0  0  0  0  0  0  0  0  0  0  0  0
   10.9119    7.8240    0.0000 O   0  0  0  0  0  0  0  0  0  0  0  0
   10.9119    9.2240    0.0000 C   0  0  0  0  0  0  0  0  0  0  0  0
    9.6995    9.9239    0.0000 C   0  0  0  0  0  0  0  0  0  0  0  0
  2  3  1  0  0  0  0
  3  4  1  0  0  0  0
  4  5  1  0  0  0  0
  1  5  1  0  0  0  0
  1  2  1  1  0  0  0
  6  7  1  0  0  0  0
  7  8  1  0  0  0  0
  8  9  1  0  0  0  0
  9 10  1  0  0  0  0
 11 12  1  0  0  0  0
 12 13  2  0  0  0  0
 13 14  1  0  0  0  0
 10 14  2  0  0  0  0
  9 11  2  0  0  0  0
  8 15  2  0  0  0  0
  7 16  1  0  0  0  0
  1 10  1  0  0  0  0
 13 17  1  0  0  0  0
  3 18  1  0  0  0  0
 19 20  1  0  0  0  0
 20 21  2  0  0  0  0
 21 22  1  0  0  0  0
 22 23  2  0  0  0  0
 18 23  1  0  0  0  0
 18 19  2  0  0  0  0
 24 25  2  0  0  0  0
 25 26  1  0  0  0  0
 26 27  2  0  0  0  0
 23 27  1  0  0  0  0
 22 24  1  0  0  0  0
  2 28  2  0  0  0  0
  5 29  1  1  0  0  0
 29 30  1  0  0  0  0
 30 31  1  0  0  0  0
 31 32  1  0  0  0  0
 16 33  1  0  0  0  0
 34 35  1  0  0  0  0
 35 36  1  0  0  0  0
 36 37  1  0  0  0  0
 37 38  1  0  0  0  0
 33 38  1  0  0  0  0
 33 34  1  0  0  0  0
  1  6  1  0  0  0  0
M  END
> <From>
www.bindingDB.org

> <BindingDB Reactant_set_id>
1515162

> <Ligand InChI>


> <Ligand InChI Key>


> <BindingDB MonomerID>
736195

> <BindingDB Ligand Name>
(4S,4'S)-6-chloro-4,-[(ethylamino)methyl]-1,-(4-isoquinolyl)-2-[(tetrahydropyran-4-ylmethyl)]spiro[3H-isoquinoUne-4,3'-pyrrolidine]-1,2,-dione::WO2025125695, Example 3

> <Target Name>
Replicase polyprotein 1ab

> <Target Source Organism According to Curator or DataSource>
Severe acute respiratory syndrome coronavirus

> <Ki (nM)>


> <IC50 (nM)>
 109

> <Kd (nM)>


> <EC50 (nM)>


> <kon (M-1-s-1)>


> <koff (s-1)>


> <pH>


> <Temp C>


> <Curation/DataSource>
WIPO

> <Article DOI>


> <BindingDB Entry DOI>
10.7270/Q2805754

> <PMID>


> <PubChem AID>


> <Patent Number>
WO2025125695

> <Authors>
GRIFFEN, EJ; COUSINS, DL; STACEY-JEPSON, JE; LEFKER, BA; ROBINSON, RP

> <Date of publication>
4/23/2025

> <Date in BindingDB>
8/28/2025

> <Institution>
Medchemica

> <Link to Ligand in BindingDB>
http://www.bindingdb.org/bind/chemsearch/marvin/MolStructure.jsp?monomerid=736195

> <Link to Ligand-Target Pair in BindingDB>
http://www.bindingdb.org/rwd/jsp/dbsearch/PrimarySearch_ki.jsp?energyterm=kJ/mole&tag=pol&polymerid=4753&target=Replicase+polyprotein+1ab&column=ki&startPg=0&Increment=50&submit=Search

> <Link to Ligand-Target Pair in BindingDB>
http://www.bindingdb.org/rwd/jsp/dbsearch/PrimarySearch_ki.jsp?energyterm=kJ/mole&tag=r21&monomerid=736195&enzyme=Replicase+polyprotein+1ab&column=ki&startPg=0&Increment=50&submit=Search

> <Ligand HET ID in PDB>


> <PDB ID(s) for Ligand-Target Complex>


> <PubChem CID of Ligand>
176394934

> <PubChem SID of Ligand>
518296818

> <ChEBI ID of Ligand>


> <ChEMBL ID of Ligand>


> <DrugBank ID of Ligand>


> <IUPHAR_GRAC ID of Ligand>


> <KEGG ID of Ligand>


> <ZINC ID of Ligand>


> <Number of Protein Chains in Target (bigger than 1 implies a multichain complex)>
1

> <BindingDB Target Chain Sequence>
MESLVLGVNEKTHVQLSLPVLQVRDVLVRGFGDSVEEALSEAREHLKNGTCGLVELEKGV LPQLEQPYVFIKRSDALSTNHGHKVVELVAEMDGIQYGRSGITLGVLVPHVGETPIAYRN VLLRKNGNKGAGGHSYGIDLKSYDLGDELGTDPIEDYEQNWNTKHGSGALRELTRELNGG AVTRYVDNNFCGPDGYPLDCIKDFLARAGKSMCTLSEQLDYIESKRGVYCCRDHEHEIAW FTERSDKSYEHQTPFEIKSAKKFDTFKGECPKFVFPLNSKVKVIQPRVEKKKTEGFMGRI RSVYPVASPQECNNMHLSTLMKCNHCDEVSWQTCDFLKATCEHCGTENLVIEGPTTCGYL PTNAVVKMPCPACQDPEIGPEHSVADYHNHSNIETRLRKGGRTRCFGGCVFAYVGCYNKR AYWVPRASADIGSGHTGITGDNVETLNEDLLEILSRERVNINIVGDFHLNEEVAIILASF SASTSAFIDTIKSLDYKSFKTIVESCGNYKVTKGKPVKGAWNIGQQRSVLTPLCGFPSQA AGVIRSIFARTLDAANHSIPDLQRAAVTILDGISEQSLRLVDAMVYTSDLLTNSVIIMAY VTGGLVQQTSQWLSNLLGTTVEKLRPIFEWIEAKLSAGVEFLKDAWEILKFLITGVFDIV KGQIQVASDNIKDCVKCFIDVVNKALEMCIDQVTIAGAKLRSLNLGEVFIAQSKGLYRQC IRGKEQLQLLMPLKAPKEVTFLEGDSHDTVLTSEEVVLKNGELEALETPVDSFTNGAIVG TPVCVNGLMLLEIKDKEQYCALSPGLLATNNVFRLKGGAPIKGVTFGEDTVWEVQGYKNV RITFELDERVDKVLNEKCSVYTVESGTEVTEFACVVAEAVVKTLQPVSDLLTNMGIDLDE WSVATFYLFDDAGEENFSSRMYCSFYPPDEEEEDDAECEEEEIDETCEHEYGTEDDYQGL PLEFGASAETVRVEEEEEEDWLDDTTEQSEIEPEPEPTPEEPVNQFTGYLKLTDNVAIKC VDIVKEAQSANPMVIVNAANIHLKHGGGVAGALNKATNGAMQKESDDYIKLNGPLTVGGS CLLSGHNLAKKCLHVVGPNLNAGEDIQLLKAAYENFNSQDILLAPLLSAGIFGAKPLQSL QVCVQTVRTQVYIAVNDKALYEQVVMDYLDNLKPRVEAPKQEEPPNTEDSKTEEKSVVQK PVDVKPKIKACIDEVTTTLEETKFLTNKLLLFADINGKLYHDSQNMLRGEDMSFLEKDAP YMVGDVITSGDITCVVIPSKKAGGTTEMLSRALKKVPVDEYITTYPGQGCAGYTLEEAKT ALKKCKSAFYVLPSEAPNAKEEILGTVSWNLREMLAHAEETRKLMPICMDVRAIMATIQR KYKGIKIQEGIVDYGVRFFFYTSKEPVASIITKLNSLNEPLVTMPIGYVTHGFNLEEAAR CMRSLKAPAVVSVSSPDAVTTYNGYLTSSSKTSEEHFVETVSLAGSYRDWSYSGQRTELG VEFLKRGDKIVYHTLESPVEFHLDGEVLSLDKLKSLLSLREVKTIKVFTTVDNTNLHTQL VDMSMTYGQQFGPTYLDGADVTKIKPHVNHEGKTFFVLPSDDTLRSEAFEYYHTLDESFL GRYMSALNHTKKWKFPQVGGLTSIKWADNNCYLSSVLLALQQLEVKFNAPALQEAYYRAR AGDAANFCALILAYSNKTVGELGDVRETMTHLLQHANLESAKRVLNVVCKHCGQKTTTLT GVEAVMYMGTLSYDNLKTGVSIPCVCGRDATQYLVQQESSFVMMSAPPAEYKLQQGTFLC ANEYTGNYQCGHYTHITAKETLYRIDGAHLTKMSEYKGPVTDVFYKETSYTTTIKPVSYK LDGVTYTEIEPKLDGYYKKDNAYYTEQPIDLVPTQPLPNASFDNFKLTCSNTKFADDLNQ MTGFTKPASRELSVTFFPDLNGDVVAIDYRHYSASFKKGAKLLHKPIVWHINQATTKTTF KPNTWCLRCLWSTKPVDTSNSFEVLAVEDTQGMDNLACESQQPTSEEVVENPTIQKEVIE CDVKTTEVVGNVILKPSDEGVKVTQELGHEDLMAAYVENTSITIKKPNELSLALGLKTIA THGIAAINSVPWSKILAYVKPFLGQAAITTSNCAKRLAQRVFNNYMPYVFTLLFQLCTFT KSTNSRIRASLPTTIAKNSVKSVAKLCLDAGINYVKSPKFSKLFTIAMWLLLLSICLGSL ICVTAAFGVLLSNFGAPSYCNGVRELYLNSSNVTTMDFCEGSFPCSICLSGLDSLDSYPA LETIQVTISSYKLDLTILGLAAEWVLAYMLFTKFFYLLGLSAIMQVFFGYFASHFISNSW LMWFIISIVQMAPVSAMVRMYIFFASFYYIWKSYVHIMDGCTSSTCMMCYKRNRATRVEC TTIVNGMKRSFYVYANGGRGFCKTHNWNCLNCDTFCTGSTFISDEVARDLSLQFKRPINP TDQSSYIVDSVAVKNGALHLYFDKAGQKTYERHPLSHFVNLDNLRANNTKGSLPINVIVF DGKSKCDESASKSASVYYSQLMCQPILLLDQALVSDVGDSTEVSVKMFDAYVDTFSATFS VPMEKLKALVATAHSELAKGVALDGVLSTFVSAARQGVVDTDVDTKDVIECLKLSHHSDL EVTGDSCNNFMLTYNKVENMTPRDLGACIDCNARHINAQVAKSHNVSLIWNVKDYMSLSE QLRKQIRSAAKKNNIPFRLTCATTRQVVNVITTKISLKGGKIVSTCFKLMLKATLLCVLA ALVCYIVMPVHTLSIHDGYTNEIIGYKAIQDGVTRDIISTDDCFANKHAGFDAWFSQRGG SYKNDKSCPVVAAIITREIGFIVPGLPGTVLRAINGDFLHFLPRVFSAVGNICYTPSKLI EYSDFATSACVLAAECTIFKDAMGKPVPYCYDTNLLEGSISYSELRPDTRYVLMDGSIIQ FPNTYLEGSVRVVTTFDAEYCRHGTCERSEVGICLSTSGRWVLNNEHYRALSGVFCGVDA MNLIANIFTPLVQPVGALDVSASVVAGGIIAILVTCAAYYFMKFRRVFGEYNHVVAANAL LFLMSFTILCLVPAYSFLPGVYSVFYLYLTFYFTNDVSFLAHLQWFAMFSPIVPFWITAI YVFCISLKHCHWFFNNYLRKRVMFNGVTFSTFEEAALCTFLLNKEMYLKLRSETLLPLTQ YNRYLALYNKYKYFSGALDTTSYREAACCHLAKALNDFSNSGADVLYQPPQTSITSAVLQ SGFRKMAFPSGKVEGCMVQVTCGTTTLNGLWLDDTVYCPRHVICTAEDMLNPNYEDLLIR KSNHSFLVQAGNVQLRVIGHSMQNCLLRLKVDTSNPKTPKYKFVRIQPGQTFSVLACYNG SPSGVYQCAMRPNHTIKGSFLNGSCGSVGFNIDYDCVSFCYMHHMELPTGVHAGTDLEGK FYGPFVDRQTAQAAGTDTTITLNVLAWLYAAVINGDRWFLNRFTTTLNDFNLVAMKYNYE PLTQDHVDILGPLSAQTGIAVLDMCAALKELLQNGMNGRTILGSTILEDEFTPFDVVRQC SGVTFQGKFKKIVKGTHHWMLLTFLTSLLILVQSTQWSLFFFVYENAFLPFTLGIMAIAA CAMLLVKHKHAFLCLFLLPSLATVAYFNMVYMPASWVMRIMTWLELADTSLSGYRLKDCV MYASALVLLILMTARTVYDDAARRVWTLMNVITLVYKVYYGNALDQAISMWALVISVTSN YSGVVTTIMFLARAIVFVCVEYYPLLFITGNTLQCIMLVYCFLGYCCCCYFGLFCLLNRY FRLTLGVYDYLVSTQEFRYMNSQGLLPPKSSIDAFKLNIKLLGIGGKPCIKVATVQSKMS DVKCTSVVLLSVLQQLRVESSSKLWAQCVQLHNDILLAKDTTEAFEKMVSLLSVLLSMQG AVDINRLCEEMLDNRATLQAIASEFSSLPSYAAYATAQEAYEQAVANGDSEVVLKKLKKS LNVAKSEFDRDAAMQRKLEKMADQAMTQMYKQARSEDKRAKVTSAMQTMLFTMLRKLDND ALNNIINNARDGCVPLNIIPLTTAAKLMVVVPDYGTYKNTCDGNTFTYASALWEIQQVVD ADSKIVQLSEINMDNSPNLAWPLIVTALRANSAVKLQNNELSPVALRQMSCAAGTTQTAC TDDNALAYYNNSKGGRFVLALLSDHQDLKWARFPKSDGTGTIYTELEPPCRFVTDTPKGP KVKYLYFIKGLNNLNRGMVLGSLAATVRLQAGNATEVPANSTVLSFCAFAVDPAKAYKDY LASGGQPITNCVKMLCTHTGTGQAITVTPEANMDQESFGGASCCLYCRCHIDHPNPKGFC DLKGKYVQIPTTCANDPVGFTLRNTVCTVCGMWKGYGCSCDQLREPLMQSADASTFLNRV CGVSAARLTPCGTGTSTDVVYRAFDIYNEKVAGFAKFLKTNCCRFQEKDEEGNLLDSYFV VKRHTMSNYQHEETIYNLVKDCPAVAVHDFFKFRVDGDMVPHISRQRLTKYTMADLVYAL RHFDEGNCDTLKEILVTYNCCDDDYFNKKDWYDFVENPDILRVYANLGERVRQSLLKTVQ FCDAMRDAGIVGVLTLDNQDLNGNWYDFGDFVQVAPGCGVPIVDSYYSLLMPILTLTRAL AAESHMDADLAKPLIKWDLLKYDFTEERLCLFDRYFKYWDQTYHPNCINCLDDRCILHCA NFNVLFSTVFPPTSFGPLVRKIFVDGVPFVVSTGYHFRELGVVHNQDVNLHSSRLSFKEL LVYAADPAMHAASGNLLLDKRTTCFSVAALTNNVAFQTVKPGNFNKDFYDFAVSKGFFKE GSSVELKHFFFAQDGNAAISDYDYYRYNLPTMCDIRQLLFVVEVVDKYFDCYDGGCINAN QVIVNNLDKSAGFPFNKWGKARLYYDSMSYEDQDALFAYTKRNVIPTITQMNLKYAISAK NRARTVAGVSICSTMTNRQFHQKLLKSIAATRGATVVIGTSKFYGGWHNMLKTVYSDVET PHLMGWDYPKCDRAMPNMLRIMASLVLARKHNTCCNLSHRFYRLANECAQVLSEMVMCGG SLYVKPGGTSSGDATTAYANSVFNICQAVTANVNALLSTDGNKIADKYVRNLQHRLYECL YRNRDVDHEFVDEFYAYLRKHFSMMILSDDAVVCYNSNYAAQGLVASIKNFKAVLYYQNN VFMSEAKCWTETDLTKGPHEFCSQHTMLVKQGDDYVYLPYPDPSRILGAGCFVDDIVKTD GTLMIERFVSLAIDAYPLTKHPNQEYADVFHLYLQYIRKLHDELTGHMLDMYSVMLTNDN TSRYWEPEFYEAMYTPHTVLQAVGACVLCNSQTSLRCGACIRRPFLCCKCCYDHVISTSH KLVLSVNPYVCNAPGCDVTDVTQLYLGGMSYYCKSHKPPISFPLCANGQVFGLYKNTCVG SDNVTDFNAIATCDWTNAGDYILANTCTERLKLFAAETLKATEETFKLSYGIATVREVLS DRELHLSWEVGKPRPPLNRNYVFTGYRVTKNSKVQIGEYTFEKGDYGDAVVYRGTTTYKL NVGDYFVLTSHTVMPLSAPTLVPQEHYVRITGLYPTLNISDEFSSNVANYQKVGMQKYST LQGPPGTGKSHFAIGLALYYPSARIVYTACSHAAVDALCEKALKYLPIDKCSRIIPARAR VECFDKFKVNSTLEQYVFCTVNALPETTADIVVFDEISMATNYDLSVVNARLRAKHYVYI GDPAQLPAPRTLLTKGTLEPEYFNSVCRLMKTIGPDMFLGTCRRCPAEIVDTVSALVYDN KLKAHKDKSAQCFKMFYKGVITHDVSSAINRPQIGVVREFLTRNPAWRKAVFISPYNSQN AVASKILGLPTQTVDSSQGSEYDYVIFTQTTETAHSCNVNRFNVAITRAKIGILCIMSDR DLYDKLQFTSLEIPRRNVATLQAENVTGLFKDCSKIITGLHPTQAPTHLSVDIKFKTEGL CVDIPGIPKDMTYRRLISMMGFKMNYQVNGYPNMFITREEAIRHVRAWIGFDVEGCHATR DAVGTNLPLQLGFSTGVNLVAVPTGYVDTENNTEFTRVNAKPPPGDQFKHLIPLMYKGLP WNVVRIKIVQMLSDTLKGLSDRVVFVLWAHGFELTSMKYFVKIGPERTCCLCDKRATCFS TSSDTYACWNHSVGFDYVYNPFMIDVQQWGFTGNLQSNHDQHCQVHGNAHVASCDAIMTR CLAVHECFVKRVDWSVEYPIIGDELRVNSACRKVQHMVVKSALLADKFPVLHDIGNPKAI KCVPQAEVEWKFYDAQPCSDKAYKIEELFYSYATHHDKFTDGVCLFWNCNVDRYPANAIV CRFDTRVLSNLNLPGCDGGSLYVNKHAFHTPAFDKSAFTNLKQLPFFYYSDSPCESHGKQ VVSDIDYVPLKSATCITRCNLGGAVCRHHANEYRQYLDAYNMMISAGFSLWIYKQFDTYN LWNTFTRLQSLENVAYNVVNKGHFDGHAGEAPVSIINNAVYTKVDGIDVEIFENKTTLPV NVAFELWAKRNIKPVPEIKILNNLGVDIAANTVIWDYKREAPAHVSTIGVCTMTDIAKKP TESACSSLTVLFDGRVEGQVDLFRNARNGVLITEGSVKGLTPSKGPAQASVNGVTLIGES VKTQFNYFKKVDGIIQQLPETYFTQSRDLEDFKPRSQMETDFLELAMDEFIQRYKLEGYA FEHIVYGDFSHGQLGGLHLMIGLAKRSQDSPLKLEDFIPMDSTVKNYFITDAQTGSSKCV CSVIDLLLDDFVEIIKSQDLSVISKVVKVTIDYAEISFMLWCKDGHVETFYPKLQASQAW QPGVAMPNLYKMQRMLLEKCDLQNYGENAVIPKGIMMNVAKYTQLCQYLNTLTLAVPYNM RVIHFGAGSDKGVAPGTAVLRQWLPTGTLLVDSDLNDFVSDADSTLIGDCATVHTANKWD LIISDMYDPRTKHVTKENDSKEGFFTYLCGFIKQKLALGGSIAVKITEHSWNADLYKLMG HFSWWTAFVTNVNASSSEAFLIGANYLGKPKEQIDGYTMHANYIFWRNTNPIQLSSYSLF DMSKFPLKLRGTAVMSLKENQINDMIYSLLEKGRLIIRENNRVVVSSDILVNN

> <PDB ID(s) of Target Chain>
9CGV,8XKO,7DTE,7C2K,9PZ0,9PYZ,9PYW,9BLF,6JYT,5C8S,5C8U,5C8T,7FAC,9NJG,9NIO,9NHU,9NHA,9NFP,9NAZ,7QIF,7QGI,5SMK,5SMI,5SMH,5SMG,5SMF,5SME,5SMD,5SMC,5SMB,5SMA,5SM9,5SM8,5SM7,5SM6,5SM5,5SM4,5SM3,5SM2,5SM1,5SM0,5SLZ,5SLY,5SLX,5SLW,5SLV,5SLU,5SLT,5SLS,5SLR,5SLQ,5SLP,5SLO,5SLN,5SLM,5SLL,5SLK,5SLJ,5SLI,5SLH,5SLG,5SLF,5SLE,5SLD,5SLC,5SLB,5SLA,5SL9,5SL8,5SL7,5SL6,5SL5,5SL4,5SL3,5SL2,5SL1,5SL0,5SKZ,5SKY,5SKX,5SKW,7R2V,2OZK,5TL7,5TL6,3E9S,4OW0,4OVZ,4MM3,3MJ5,2FE8,5Y3Q,5Y3E,9CEH,2GTB,2GT8,2A5K,7ZQW,7XAX,7RC1,7LMJ,7LMI,7LMH,7LMG,7LCQ,7LCP,7EO8,7END,7DQZ

> <UniProt (SwissProt) Recommended Name of Target Chain>
Replicase polyprotein 1ab

> <UniProt (SwissProt) Entry Name of Target Chain>
R1AB_SARS

> <UniProt (SwissProt) Primary ID of Target Chain>
P0C6X7

> <UniProt (SwissProt) Secondary ID(s) of Target Chain>
P59641 Q6WGN0 Q7T697 Q808C0 Q80BV7 Q80BV8 Q80E51

> <UniProt (SwissProt) Alternative ID(s) of Target Chain>


> <UniProt (TrEMBL) Submitted Name of Target Chain>


> <UniProt (TrEMBL) Entry Name of Target Chain>


> <UniProt (TrEMBL) Primary ID of Target Chain>


> <UniProt (TrEMBL) Secondary ID(s) of Target Chain>


> <UniProt (TrEMBL) Alternative ID(s) of Target Chain>


$$$$

JME 2024-04-29 Tue Aug 26 14:55:24 GMT-700 2025

 39 44  0  0  0  0  0  0  0  0999 V2000
    4.8497    7.1239    0.0000 C   0  0  0  0  0  0  0  0  0  0  0  0
    3.7171    6.3010    0.0000 C   0  0  0  0  0  0  0  0  0  0  0  0
    4.1497    4.9695    0.0000 N   0  0  0  0  0  0  0  0  0  0  0  0
    5.5497    4.9695    0.0000 C   0  0  0  0  0  0  0  0  0  0  0  0
    5.9824    6.3010    0.0000 C   0  0  0  0  0  0  0  0  0  0  0  0
    6.0622    7.8239    0.0000 C   0  0  0  0  0  0  0  0  0  0  0  0
    6.0622    9.2239    0.0000 N   0  0  0  0  0  0  0  0  0  0  0  0
    4.8497    9.9239    0.0000 C   0  0  0  0  0  0  0  0  0  0  0  0
    3.6373    9.2239    0.0000 C   0  0  0  0  0  0  0  0  0  0  0  0
    3.6373    7.8239    0.0000 C   0  0  0  0  0  0  0  0  0  0  0  0
    2.4249    9.9239    0.0000 C   0  0  0  0  0  0  0  0  0  0  0  0
    1.2124    9.2239    0.0000 C   0  0  0  0  0  0  0  0  0  0  0  0
    1.2124    7.8239    0.0000 C   0  0  0  0  0  0  0  0  0  0  0  0
    2.4249    7.1239    0.0000 C   0  0  0  0  0  0  0  0  0  0  0  0
    4.8497   11.3239    0.0000 O   0  0  0  0  0  0  0  0  0  0  0  0
    7.2746    9.9239    0.0000 C   0  0  0  0  0  0  0  0  0  0  0  0
    0.0000    7.1239    0.0000 Cl  0  0  0  0  0  0  0  0  0  0  0  0
    3.3268    3.8369    0.0000 C   0  0  0  0  0  0  0  0  0  0  0  0
    1.9345    3.9832    0.0000 C   0  0  0  0  0  0  0  0  0  0  0  0
    1.1116    2.8506    0.0000 N   0  0  0  0  0  0  0  0  0  0  0  0
    1.6810    1.5716    0.0000 C   0  0  0  0  0  0  0  0  0  0  0  0
    3.0734    1.4253    0.0000 C   0  0  0  0  0  0  0  0  0  0  0  0
    3.8963    2.5579    0.0000 C   0  0  0  0  0  0  0  0  0  0  0  0
    3.6428    0.1463    0.0000 C   0  0  0  0  0  0  0  0  0  0  0  0
    5.0351    0.0000    0.0000 C   0  0  0  0  0  0  0  0  0  0  0  0
    5.8580    1.1326    0.0000 C   0  0  0  0  0  0  0  0  0  0  0  0
    5.2886    2.4116    0.0000 C   0  0  0  0  0  0  0  0  0  0  0  0
    2.3205    6.2039    0.0000 O   0  0  0  0  0  0  0  0  0  0  0  0
    7.3138    6.7336    0.0000 C   0  0  0  0  0  0  0  0  0  0  0  0
    8.3542    5.7968    0.0000 N   0  0  0  0  0  0  0  0  0  0  0  0
    8.0632    4.4274    0.0000 C   0  0  0  0  0  0  0  0  0  0  0  0
    9.1036    3.4906    0.0000 C   0  0  0  0  0  0  0  0  0  0  0  0
    8.4871    9.2239    0.0000 C   0  0  0  0  0  0  0  0  0  0  0  0
    8.4871    7.8239    0.0000 C   0  0  0  0  0  0  0  0  0  0  0  0
    9.6995    7.1239    0.0000 C   0  0  0  0  0  0  0  0  0  0  0  0
   10.9119    7.8240    0.0000 N   0  0  0  0  0  0  0  0  0  0  0  0
   10.9119    9.2240    0.0000 C   0  0  0  0  0  0  0  0  0  0  0  0
    9.6995    9.9239    0.0000 N   0  0  0  0  0  0  0  0  0  0  0  0
    9.6995    5.7239    0.0000 C   0  0  0  0  0  0  0  0  0  0  0  0
  2  3  1  0  0  0  0
  3  4  1  0  0  0  0
  4  5  1  0  0  0  0
  1  5  1  0  0  0  0
  1  2  1  1  0  0  0
  6  7  1  0  0  0  0
  7  8  1  0  0  0  0
  8  9  1  0  0  0  0
  9 10  1  0  0  0  0
 11 12  1  0  0  0  0
 12 13  2  0  0  0  0
 13 14  1  0  0  0  0
 10 14  2  0  0  0  0
  9 11  2  0  0  0  0
  8 15  2  0  0  0  0
  7 16  1  0  0  0  0
  1 10  1  0  0  0  0
 13 17  1  0  0  0  0
  3 18  1  0  0  0  0
 19 20  1  0  0  0  0
 20 21  2  0  0  0  0
 21 22  1  0  0  0  0
 22 23  2  0  0  0  0
 18 23  1  0  0  0  0
 18 19  2  0  0  0  0
 24 25  2  0  0  0  0
 25 26  1  0  0  0  0
 26 27  2  0  0  0  0
 23 27  1  0  0  0  0
 22 24  1  0  0  0  0
  2 28  2  0  0  0  0
  5 29  1  1  0  0  0
 29 30  1  0  0  0  0
 30 31  1  0  0  0  0
 31 32  1  0  0  0  0
 16 33  1  0  0  0  0
 34 35  2  0  0  0  0
 35 36  1  0  0  0  0
 36 37  2  0  0  0  0
 37 38  1  0  0  0  0
 33 38  2  0  0  0  0
 33 34  1  0  0  0  0
  1  6  1  0  0  0  0
 35 39  1  0  0  0  0
M  END
> <From>
www.bindingDB.org

> <BindingDB Reactant_set_id>
1515163

> <Ligand InChI>


> <Ligand InChI Key>


> <BindingDB MonomerID>
736196

> <BindingDB Ligand Name>
(4S,4'S)-6-chloro-4,-[(ethylamino)methyl]-1,-(4-isoquinolyl)-2-[(6-methylpyrimidin-4-yl)methyl]spiro[3H-isoquinoUne-4,3'-pyrrolidine]-1,2,-dione::WO2025125695, Example 4

> <Target Name>
Replicase polyprotein 1ab

> <Target Source Organism According to Curator or DataSource>
Severe acute respiratory syndrome coronavirus

> <Ki (nM)>


> <IC50 (nM)>
 51

> <Kd (nM)>


> <EC50 (nM)>


> <kon (M-1-s-1)>


> <koff (s-1)>


> <pH>


> <Temp C>


> <Curation/DataSource>
WIPO

> <Article DOI>


> <BindingDB Entry DOI>
10.7270/Q2805754

> <PMID>


> <PubChem AID>


> <Patent Number>
WO2025125695

> <Authors>
GRIFFEN, EJ; COUSINS, DL; STACEY-JEPSON, JE; LEFKER, BA; ROBINSON, RP

> <Date of publication>
4/23/2025

> <Date in BindingDB>
8/28/2025

> <Institution>
Medchemica

> <Link to Ligand in BindingDB>
http://www.bindingdb.org/bind/chemsearch/marvin/MolStructure.jsp?monomerid=736196

> <Link to Ligand-Target Pair in BindingDB>
http://www.bindingdb.org/rwd/jsp/dbsearch/PrimarySearch_ki.jsp?energyterm=kJ/mole&tag=pol&polymerid=4753&target=Replicase+polyprotein+1ab&column=ki&startPg=0&Increment=50&submit=Search

> <Link to Ligand-Target Pair in BindingDB>
http://www.bindingdb.org/rwd/jsp/dbsearch/PrimarySearch_ki.jsp?energyterm=kJ/mole&tag=r21&monomerid=736196&enzyme=Replicase+polyprotein+1ab&column=ki&startPg=0&Increment=50&submit=Search

> <Ligand HET ID in PDB>


> <PDB ID(s) for Ligand-Target Complex>


> <PubChem CID of Ligand>
176394957

> <PubChem SID of Ligand>
518296819

> <ChEBI ID of Ligand>


> <ChEMBL ID of Ligand>


> <DrugBank ID of Ligand>


> <IUPHAR_GRAC ID of Ligand>


> <KEGG ID of Ligand>


> <ZINC ID of Ligand>


> <Number of Protein Chains in Target (bigger than 1 implies a multichain complex)>
1

> <BindingDB Target Chain Sequence>
MESLVLGVNEKTHVQLSLPVLQVRDVLVRGFGDSVEEALSEAREHLKNGTCGLVELEKGV LPQLEQPYVFIKRSDALSTNHGHKVVELVAEMDGIQYGRSGITLGVLVPHVGETPIAYRN VLLRKNGNKGAGGHSYGIDLKSYDLGDELGTDPIEDYEQNWNTKHGSGALRELTRELNGG AVTRYVDNNFCGPDGYPLDCIKDFLARAGKSMCTLSEQLDYIESKRGVYCCRDHEHEIAW FTERSDKSYEHQTPFEIKSAKKFDTFKGECPKFVFPLNSKVKVIQPRVEKKKTEGFMGRI RSVYPVASPQECNNMHLSTLMKCNHCDEVSWQTCDFLKATCEHCGTENLVIEGPTTCGYL PTNAVVKMPCPACQDPEIGPEHSVADYHNHSNIETRLRKGGRTRCFGGCVFAYVGCYNKR AYWVPRASADIGSGHTGITGDNVETLNEDLLEILSRERVNINIVGDFHLNEEVAIILASF SASTSAFIDTIKSLDYKSFKTIVESCGNYKVTKGKPVKGAWNIGQQRSVLTPLCGFPSQA AGVIRSIFARTLDAANHSIPDLQRAAVTILDGISEQSLRLVDAMVYTSDLLTNSVIIMAY VTGGLVQQTSQWLSNLLGTTVEKLRPIFEWIEAKLSAGVEFLKDAWEILKFLITGVFDIV KGQIQVASDNIKDCVKCFIDVVNKALEMCIDQVTIAGAKLRSLNLGEVFIAQSKGLYRQC IRGKEQLQLLMPLKAPKEVTFLEGDSHDTVLTSEEVVLKNGELEALETPVDSFTNGAIVG TPVCVNGLMLLEIKDKEQYCALSPGLLATNNVFRLKGGAPIKGVTFGEDTVWEVQGYKNV RITFELDERVDKVLNEKCSVYTVESGTEVTEFACVVAEAVVKTLQPVSDLLTNMGIDLDE WSVATFYLFDDAGEENFSSRMYCSFYPPDEEEEDDAECEEEEIDETCEHEYGTEDDYQGL PLEFGASAETVRVEEEEEEDWLDDTTEQSEIEPEPEPTPEEPVNQFTGYLKLTDNVAIKC VDIVKEAQSANPMVIVNAANIHLKHGGGVAGALNKATNGAMQKESDDYIKLNGPLTVGGS CLLSGHNLAKKCLHVVGPNLNAGEDIQLLKAAYENFNSQDILLAPLLSAGIFGAKPLQSL QVCVQTVRTQVYIAVNDKALYEQVVMDYLDNLKPRVEAPKQEEPPNTEDSKTEEKSVVQK PVDVKPKIKACIDEVTTTLEETKFLTNKLLLFADINGKLYHDSQNMLRGEDMSFLEKDAP YMVGDVITSGDITCVVIPSKKAGGTTEMLSRALKKVPVDEYITTYPGQGCAGYTLEEAKT ALKKCKSAFYVLPSEAPNAKEEILGTVSWNLREMLAHAEETRKLMPICMDVRAIMATIQR KYKGIKIQEGIVDYGVRFFFYTSKEPVASIITKLNSLNEPLVTMPIGYVTHGFNLEEAAR CMRSLKAPAVVSVSSPDAVTTYNGYLTSSSKTSEEHFVETVSLAGSYRDWSYSGQRTELG VEFLKRGDKIVYHTLESPVEFHLDGEVLSLDKLKSLLSLREVKTIKVFTTVDNTNLHTQL VDMSMTYGQQFGPTYLDGADVTKIKPHVNHEGKTFFVLPSDDTLRSEAFEYYHTLDESFL GRYMSALNHTKKWKFPQVGGLTSIKWADNNCYLSSVLLALQQLEVKFNAPALQEAYYRAR AGDAANFCALILAYSNKTVGELGDVRETMTHLLQHANLESAKRVLNVVCKHCGQKTTTLT GVEAVMYMGTLSYDNLKTGVSIPCVCGRDATQYLVQQESSFVMMSAPPAEYKLQQGTFLC ANEYTGNYQCGHYTHITAKETLYRIDGAHLTKMSEYKGPVTDVFYKETSYTTTIKPVSYK LDGVTYTEIEPKLDGYYKKDNAYYTEQPIDLVPTQPLPNASFDNFKLTCSNTKFADDLNQ MTGFTKPASRELSVTFFPDLNGDVVAIDYRHYSASFKKGAKLLHKPIVWHINQATTKTTF KPNTWCLRCLWSTKPVDTSNSFEVLAVEDTQGMDNLACESQQPTSEEVVENPTIQKEVIE CDVKTTEVVGNVILKPSDEGVKVTQELGHEDLMAAYVENTSITIKKPNELSLALGLKTIA THGIAAINSVPWSKILAYVKPFLGQAAITTSNCAKRLAQRVFNNYMPYVFTLLFQLCTFT KSTNSRIRASLPTTIAKNSVKSVAKLCLDAGINYVKSPKFSKLFTIAMWLLLLSICLGSL ICVTAAFGVLLSNFGAPSYCNGVRELYLNSSNVTTMDFCEGSFPCSICLSGLDSLDSYPA LETIQVTISSYKLDLTILGLAAEWVLAYMLFTKFFYLLGLSAIMQVFFGYFASHFISNSW LMWFIISIVQMAPVSAMVRMYIFFASFYYIWKSYVHIMDGCTSSTCMMCYKRNRATRVEC TTIVNGMKRSFYVYANGGRGFCKTHNWNCLNCDTFCTGSTFISDEVARDLSLQFKRPINP TDQSSYIVDSVAVKNGALHLYFDKAGQKTYERHPLSHFVNLDNLRANNTKGSLPINVIVF DGKSKCDESASKSASVYYSQLMCQPILLLDQALVSDVGDSTEVSVKMFDAYVDTFSATFS VPMEKLKALVATAHSELAKGVALDGVLSTFVSAARQGVVDTDVDTKDVIECLKLSHHSDL EVTGDSCNNFMLTYNKVENMTPRDLGACIDCNARHINAQVAKSHNVSLIWNVKDYMSLSE QLRKQIRSAAKKNNIPFRLTCATTRQVVNVITTKISLKGGKIVSTCFKLMLKATLLCVLA ALVCYIVMPVHTLSIHDGYTNEIIGYKAIQDGVTRDIISTDDCFANKHAGFDAWFSQRGG SYKNDKSCPVVAAIITREIGFIVPGLPGTVLRAINGDFLHFLPRVFSAVGNICYTPSKLI EYSDFATSACVLAAECTIFKDAMGKPVPYCYDTNLLEGSISYSELRPDTRYVLMDGSIIQ FPNTYLEGSVRVVTTFDAEYCRHGTCERSEVGICLSTSGRWVLNNEHYRALSGVFCGVDA MNLIANIFTPLVQPVGALDVSASVVAGGIIAILVTCAAYYFMKFRRVFGEYNHVVAANAL LFLMSFTILCLVPAYSFLPGVYSVFYLYLTFYFTNDVSFLAHLQWFAMFSPIVPFWITAI YVFCISLKHCHWFFNNYLRKRVMFNGVTFSTFEEAALCTFLLNKEMYLKLRSETLLPLTQ YNRYLALYNKYKYFSGALDTTSYREAACCHLAKALNDFSNSGADVLYQPPQTSITSAVLQ SGFRKMAFPSGKVEGCMVQVTCGTTTLNGLWLDDTVYCPRHVICTAEDMLNPNYEDLLIR KSNHSFLVQAGNVQLRVIGHSMQNCLLRLKVDTSNPKTPKYKFVRIQPGQTFSVLACYNG SPSGVYQCAMRPNHTIKGSFLNGSCGSVGFNIDYDCVSFCYMHHMELPTGVHAGTDLEGK FYGPFVDRQTAQAAGTDTTITLNVLAWLYAAVINGDRWFLNRFTTTLNDFNLVAMKYNYE PLTQDHVDILGPLSAQTGIAVLDMCAALKELLQNGMNGRTILGSTILEDEFTPFDVVRQC SGVTFQGKFKKIVKGTHHWMLLTFLTSLLILVQSTQWSLFFFVYENAFLPFTLGIMAIAA CAMLLVKHKHAFLCLFLLPSLATVAYFNMVYMPASWVMRIMTWLELADTSLSGYRLKDCV MYASALVLLILMTARTVYDDAARRVWTLMNVITLVYKVYYGNALDQAISMWALVISVTSN YSGVVTTIMFLARAIVFVCVEYYPLLFITGNTLQCIMLVYCFLGYCCCCYFGLFCLLNRY FRLTLGVYDYLVSTQEFRYMNSQGLLPPKSSIDAFKLNIKLLGIGGKPCIKVATVQSKMS DVKCTSVVLLSVLQQLRVESSSKLWAQCVQLHNDILLAKDTTEAFEKMVSLLSVLLSMQG AVDINRLCEEMLDNRATLQAIASEFSSLPSYAAYATAQEAYEQAVANGDSEVVLKKLKKS LNVAKSEFDRDAAMQRKLEKMADQAMTQMYKQARSEDKRAKVTSAMQTMLFTMLRKLDND ALNNIINNARDGCVPLNIIPLTTAAKLMVVVPDYGTYKNTCDGNTFTYASALWEIQQVVD ADSKIVQLSEINMDNSPNLAWPLIVTALRANSAVKLQNNELSPVALRQMSCAAGTTQTAC TDDNALAYYNNSKGGRFVLALLSDHQDLKWARFPKSDGTGTIYTELEPPCRFVTDTPKGP KVKYLYFIKGLNNLNRGMVLGSLAATVRLQAGNATEVPANSTVLSFCAFAVDPAKAYKDY LASGGQPITNCVKMLCTHTGTGQAITVTPEANMDQESFGGASCCLYCRCHIDHPNPKGFC DLKGKYVQIPTTCANDPVGFTLRNTVCTVCGMWKGYGCSCDQLREPLMQSADASTFLNRV CGVSAARLTPCGTGTSTDVVYRAFDIYNEKVAGFAKFLKTNCCRFQEKDEEGNLLDSYFV VKRHTMSNYQHEETIYNLVKDCPAVAVHDFFKFRVDGDMVPHISRQRLTKYTMADLVYAL RHFDEGNCDTLKEILVTYNCCDDDYFNKKDWYDFVENPDILRVYANLGERVRQSLLKTVQ FCDAMRDAGIVGVLTLDNQDLNGNWYDFGDFVQVAPGCGVPIVDSYYSLLMPILTLTRAL AAESHMDADLAKPLIKWDLLKYDFTEERLCLFDRYFKYWDQTYHPNCINCLDDRCILHCA NFNVLFSTVFPPTSFGPLVRKIFVDGVPFVVSTGYHFRELGVVHNQDVNLHSSRLSFKEL LVYAADPAMHAASGNLLLDKRTTCFSVAALTNNVAFQTVKPGNFNKDFYDFAVSKGFFKE GSSVELKHFFFAQDGNAAISDYDYYRYNLPTMCDIRQLLFVVEVVDKYFDCYDGGCINAN QVIVNNLDKSAGFPFNKWGKARLYYDSMSYEDQDALFAYTKRNVIPTITQMNLKYAISAK NRARTVAGVSICSTMTNRQFHQKLLKSIAATRGATVVIGTSKFYGGWHNMLKTVYSDVET PHLMGWDYPKCDRAMPNMLRIMASLVLARKHNTCCNLSHRFYRLANECAQVLSEMVMCGG SLYVKPGGTSSGDATTAYANSVFNICQAVTANVNALLSTDGNKIADKYVRNLQHRLYECL YRNRDVDHEFVDEFYAYLRKHFSMMILSDDAVVCYNSNYAAQGLVASIKNFKAVLYYQNN VFMSEAKCWTETDLTKGPHEFCSQHTMLVKQGDDYVYLPYPDPSRILGAGCFVDDIVKTD GTLMIERFVSLAIDAYPLTKHPNQEYADVFHLYLQYIRKLHDELTGHMLDMYSVMLTNDN TSRYWEPEFYEAMYTPHTVLQAVGACVLCNSQTSLRCGACIRRPFLCCKCCYDHVISTSH KLVLSVNPYVCNAPGCDVTDVTQLYLGGMSYYCKSHKPPISFPLCANGQVFGLYKNTCVG SDNVTDFNAIATCDWTNAGDYILANTCTERLKLFAAETLKATEETFKLSYGIATVREVLS DRELHLSWEVGKPRPPLNRNYVFTGYRVTKNSKVQIGEYTFEKGDYGDAVVYRGTTTYKL NVGDYFVLTSHTVMPLSAPTLVPQEHYVRITGLYPTLNISDEFSSNVANYQKVGMQKYST LQGPPGTGKSHFAIGLALYYPSARIVYTACSHAAVDALCEKALKYLPIDKCSRIIPARAR VECFDKFKVNSTLEQYVFCTVNALPETTADIVVFDEISMATNYDLSVVNARLRAKHYVYI GDPAQLPAPRTLLTKGTLEPEYFNSVCRLMKTIGPDMFLGTCRRCPAEIVDTVSALVYDN KLKAHKDKSAQCFKMFYKGVITHDVSSAINRPQIGVVREFLTRNPAWRKAVFISPYNSQN AVASKILGLPTQTVDSSQGSEYDYVIFTQTTETAHSCNVNRFNVAITRAKIGILCIMSDR DLYDKLQFTSLEIPRRNVATLQAENVTGLFKDCSKIITGLHPTQAPTHLSVDIKFKTEGL CVDIPGIPKDMTYRRLISMMGFKMNYQVNGYPNMFITREEAIRHVRAWIGFDVEGCHATR DAVGTNLPLQLGFSTGVNLVAVPTGYVDTENNTEFTRVNAKPPPGDQFKHLIPLMYKGLP WNVVRIKIVQMLSDTLKGLSDRVVFVLWAHGFELTSMKYFVKIGPERTCCLCDKRATCFS TSSDTYACWNHSVGFDYVYNPFMIDVQQWGFTGNLQSNHDQHCQVHGNAHVASCDAIMTR CLAVHECFVKRVDWSVEYPIIGDELRVNSACRKVQHMVVKSALLADKFPVLHDIGNPKAI KCVPQAEVEWKFYDAQPCSDKAYKIEELFYSYATHHDKFTDGVCLFWNCNVDRYPANAIV CRFDTRVLSNLNLPGCDGGSLYVNKHAFHTPAFDKSAFTNLKQLPFFYYSDSPCESHGKQ VVSDIDYVPLKSATCITRCNLGGAVCRHHANEYRQYLDAYNMMISAGFSLWIYKQFDTYN LWNTFTRLQSLENVAYNVVNKGHFDGHAGEAPVSIINNAVYTKVDGIDVEIFENKTTLPV NVAFELWAKRNIKPVPEIKILNNLGVDIAANTVIWDYKREAPAHVSTIGVCTMTDIAKKP TESACSSLTVLFDGRVEGQVDLFRNARNGVLITEGSVKGLTPSKGPAQASVNGVTLIGES VKTQFNYFKKVDGIIQQLPETYFTQSRDLEDFKPRSQMETDFLELAMDEFIQRYKLEGYA FEHIVYGDFSHGQLGGLHLMIGLAKRSQDSPLKLEDFIPMDSTVKNYFITDAQTGSSKCV CSVIDLLLDDFVEIIKSQDLSVISKVVKVTIDYAEISFMLWCKDGHVETFYPKLQASQAW QPGVAMPNLYKMQRMLLEKCDLQNYGENAVIPKGIMMNVAKYTQLCQYLNTLTLAVPYNM RVIHFGAGSDKGVAPGTAVLRQWLPTGTLLVDSDLNDFVSDADSTLIGDCATVHTANKWD LIISDMYDPRTKHVTKENDSKEGFFTYLCGFIKQKLALGGSIAVKITEHSWNADLYKLMG HFSWWTAFVTNVNASSSEAFLIGANYLGKPKEQIDGYTMHANYIFWRNTNPIQLSSYSLF DMSKFPLKLRGTAVMSLKENQINDMIYSLLEKGRLIIRENNRVVVSSDILVNN

> <PDB ID(s) of Target Chain>
9CGV,8XKO,7DTE,7C2K,9PZ0,9PYZ,9PYW,9BLF,6JYT,5C8S,5C8U,5C8T,7FAC,9NJG,9NIO,9NHU,9NHA,9NFP,9NAZ,7QIF,7QGI,5SMK,5SMI,5SMH,5SMG,5SMF,5SME,5SMD,5SMC,5SMB,5SMA,5SM9,5SM8,5SM7,5SM6,5SM5,5SM4,5SM3,5SM2,5SM1,5SM0,5SLZ,5SLY,5SLX,5SLW,5SLV,5SLU,5SLT,5SLS,5SLR,5SLQ,5SLP,5SLO,5SLN,5SLM,5SLL,5SLK,5SLJ,5SLI,5SLH,5SLG,5SLF,5SLE,5SLD,5SLC,5SLB,5SLA,5SL9,5SL8,5SL7,5SL6,5SL5,5SL4,5SL3,5SL2,5SL1,5SL0,5SKZ,5SKY,5SKX,5SKW,7R2V,2OZK,5TL7,5TL6,3E9S,4OW0,4OVZ,4MM3,3MJ5,2FE8,5Y3Q,5Y3E,9CEH,2GTB,2GT8,2A5K,7ZQW,7XAX,7RC1,7LMJ,7LMI,7LMH,7LMG,7LCQ,7LCP,7EO8,7END,7DQZ

> <UniProt (SwissProt) Recommended Name of Target Chain>
Replicase polyprotein 1ab

> <UniProt (SwissProt) Entry Name of Target Chain>
R1AB_SARS

> <UniProt (SwissProt) Primary ID of Target Chain>
P0C6X7

> <UniProt (SwissProt) Secondary ID(s) of Target Chain>
P59641 Q6WGN0 Q7T697 Q808C0 Q80BV7 Q80BV8 Q80E51

> <UniProt (SwissProt) Alternative ID(s) of Target Chain>


> <UniProt (TrEMBL) Submitted Name of Target Chain>


> <UniProt (TrEMBL) Entry Name of Target Chain>


> <UniProt (TrEMBL) Primary ID of Target Chain>


> <UniProt (TrEMBL) Secondary ID(s) of Target Chain>


> <UniProt (TrEMBL) Alternative ID(s) of Target Chain>


$$$$

JME 2024-04-29 Tue Aug 26 15:05:40 GMT-700 2025

 39 44  0  0  0  0  0  0  0  0999 V2000
    4.8497    7.1239    0.0000 C   0  0  0  0  0  0  0  0  0  0  0  0
    3.7171    6.3010    0.0000 C   0  0  0  0  0  0  0  0  0  0  0  0
    4.1497    4.9695    0.0000 N   0  0  0  0  0  0  0  0  0  0  0  0
    5.5497    4.9695    0.0000 C   0  0  0  0  0  0  0  0  0  0  0  0
    5.9824    6.3010    0.0000 C   0  0  0  0  0  0  0  0  0  0  0  0
    6.0622    7.8239    0.0000 C   0  0  0  0  0  0  0  0  0  0  0  0
    6.0622    9.2239    0.0000 N   0  0  0  0  0  0  0  0  0  0  0  0
    4.8497    9.9239    0.0000 C   0  0  0  0  0  0  0  0  0  0  0  0
    3.6373    9.2239    0.0000 C   0  0  0  0  0  0  0  0  0  0  0  0
    3.6373    7.8239    0.0000 C   0  0  0  0  0  0  0  0  0  0  0  0
    2.4249    9.9239    0.0000 C   0  0  0  0  0  0  0  0  0  0  0  0
    1.2124    9.2239    0.0000 C   0  0  0  0  0  0  0  0  0  0  0  0
    1.2124    7.8239    0.0000 C   0  0  0  0  0  0  0  0  0  0  0  0
    2.4249    7.1239    0.0000 C   0  0  0  0  0  0  0  0  0  0  0  0
    4.8497   11.3239    0.0000 O   0  0  0  0  0  0  0  0  0  0  0  0
    7.2746    9.9239    0.0000 C   0  0  0  0  0  0  0  0  0  0  0  0
    0.0000    7.1239    0.0000 Cl  0  0  0  0  0  0  0  0  0  0  0  0
    3.3268    3.8369    0.0000 C   0  0  0  0  0  0  0  0  0  0  0  0
    1.9345    3.9832    0.0000 C   0  0  0  0  0  0  0  0  0  0  0  0
    1.1116    2.8506    0.0000 N   0  0  0  0  0  0  0  0  0  0  0  0
    1.6810    1.5716    0.0000 C   0  0  0  0  0  0  0  0  0  0  0  0
    3.0734    1.4253    0.0000 C   0  0  0  0  0  0  0  0  0  0  0  0
    3.8963    2.5579    0.0000 C   0  0  0  0  0  0  0  0  0  0  0  0
    3.6428    0.1463    0.0000 C   0  0  0  0  0  0  0  0  0  0  0  0
    5.0351    0.0000    0.0000 C   0  0  0  0  0  0  0  0  0  0  0  0
    5.8580    1.1326    0.0000 C   0  0  0  0  0  0  0  0  0  0  0  0
    5.2886    2.4116    0.0000 C   0  0  0  0  0  0  0  0  0  0  0  0
    2.3205    6.2039    0.0000 O   0  0  0  0  0  0  0  0  0  0  0  0
    7.3138    6.7336    0.0000 C   0  0  0  0  0  0  0  0  0  0  0  0
    8.3542    5.7968    0.0000 N   0  0  0  0  0  0  0  0  0  0  0  0
    8.0632    4.4274    0.0000 C   0  0  0  0  0  0  0  0  0  0  0  0
    9.1036    3.4906    0.0000 C   0  0  0  0  0  0  0  0  0  0  0  0
    8.4871    9.2239    0.0000 C   0  0  0  0  0  0  0  0  0  0  0  0
    8.4871    7.8239    0.0000 C   0  0  0  0  0  0  0  0  0  0  0  0
    9.6995    7.1239    0.0000 C   0  0  0  0  0  0  0  0  0  0  0  0
   10.9119    7.8240    0.0000 O   0  0  0  0  0  0  0  0  0  0  0  0
   10.9119    9.2240    0.0000 C   0  0  0  0  0  0  0  0  0  0  0  0
    9.6995    9.9239    0.0000 C   0  0  0  0  0  0  0  0  0  0  0  0
    6.7317    3.9948    0.0000 C   0  0  0  0  0  0  0  0  0  0  0  0
  2  3  1  0  0  0  0
  3  4  1  0  0  0  0
  4  5  1  0  0  0  0
  1  5  1  0  0  0  0
  1  2  1  1  0  0  0
  6  7  1  0  0  0  0
  7  8  1  0  0  0  0
  8  9  1  0  0  0  0
  9 10  1  0  0  0  0
 11 12  1  0  0  0  0
 12 13  2  0  0  0  0
 13 14  1  0  0  0  0
 10 14  2  0  0  0  0
  9 11  2  0  0  0  0
  8 15  2  0  0  0  0
  7 16  1  0  0  0  0
  1 10  1  0  0  0  0
 13 17  1  0  0  0  0
  3 18  1  0  0  0  0
 19 20  1  0  0  0  0
 20 21  2  0  0  0  0
 21 22  1  0  0  0  0
 22 23  2  0  0  0  0
 18 23  1  0  0  0  0
 18 19  2  0  0  0  0
 24 25  2  0  0  0  0
 25 26  1  0  0  0  0
 26 27  2  0  0  0  0
 23 27  1  0  0  0  0
 22 24  1  0  0  0  0
  2 28  2  0  0  0  0
  5 29  1  1  0  0  0
 29 30  1  0  0  0  0
 30 31  1  0  0  0  0
 31 32  1  0  0  0  0
 16 33  1  0  0  0  0
 34 35  1  0  0  0  0
 35 36  1  0  0  0  0
 36 37  1  0  0  0  0
 37 38  1  0  0  0  0
 33 38  1  0  0  0  0
 33 34  1  0  0  0  0
  1  6  1  0  0  0  0
 31 39  1  0  0  0  0
M  END
> <From>
www.bindingDB.org

> <BindingDB Reactant_set_id>
1515164

> <Ligand InChI>


> <Ligand InChI Key>


> <BindingDB MonomerID>
736197

> <BindingDB Ligand Name>
(4S,4'S)-6-chloro-4,-[(ethylamino)methyl]-1,-(4-isoquinolyl)-2-[(6-methylpyrimidin-4-yl)methyl]spiro[3H-isoquinoUne-4,3'-pyrrolidine]-1,2,-dione::WO2025125695, Example 5

> <Target Name>
Replicase polyprotein 1ab

> <Target Source Organism According to Curator or DataSource>
Severe acute respiratory syndrome coronavirus

> <Ki (nM)>


> <IC50 (nM)>
 133

> <Kd (nM)>


> <EC50 (nM)>


> <kon (M-1-s-1)>


> <koff (s-1)>


> <pH>


> <Temp C>


> <Curation/DataSource>
WIPO

> <Article DOI>


> <BindingDB Entry DOI>
10.7270/Q2805754

> <PMID>


> <PubChem AID>


> <Patent Number>
WO2025125695

> <Authors>
GRIFFEN, EJ; COUSINS, DL; STACEY-JEPSON, JE; LEFKER, BA; ROBINSON, RP

> <Date of publication>
4/23/2025

> <Date in BindingDB>
8/28/2025

> <Institution>
Medchemica

> <Link to Ligand in BindingDB>
http://www.bindingdb.org/bind/chemsearch/marvin/MolStructure.jsp?monomerid=736197

> <Link to Ligand-Target Pair in BindingDB>
http://www.bindingdb.org/rwd/jsp/dbsearch/PrimarySearch_ki.jsp?energyterm=kJ/mole&tag=pol&polymerid=4753&target=Replicase+polyprotein+1ab&column=ki&startPg=0&Increment=50&submit=Search

> <Link to Ligand-Target Pair in BindingDB>
http://www.bindingdb.org/rwd/jsp/dbsearch/PrimarySearch_ki.jsp?energyterm=kJ/mole&tag=r21&monomerid=736197&enzyme=Replicase+polyprotein+1ab&column=ki&startPg=0&Increment=50&submit=Search

> <Ligand HET ID in PDB>


> <PDB ID(s) for Ligand-Target Complex>


> <PubChem CID of Ligand>
176394998

> <PubChem SID of Ligand>
518296820

> <ChEBI ID of Ligand>


> <ChEMBL ID of Ligand>


> <DrugBank ID of Ligand>


> <IUPHAR_GRAC ID of Ligand>


> <KEGG ID of Ligand>


> <ZINC ID of Ligand>


> <Number of Protein Chains in Target (bigger than 1 implies a multichain complex)>
1

> <BindingDB Target Chain Sequence>
MESLVLGVNEKTHVQLSLPVLQVRDVLVRGFGDSVEEALSEAREHLKNGTCGLVELEKGV LPQLEQPYVFIKRSDALSTNHGHKVVELVAEMDGIQYGRSGITLGVLVPHVGETPIAYRN VLLRKNGNKGAGGHSYGIDLKSYDLGDELGTDPIEDYEQNWNTKHGSGALRELTRELNGG AVTRYVDNNFCGPDGYPLDCIKDFLARAGKSMCTLSEQLDYIESKRGVYCCRDHEHEIAW FTERSDKSYEHQTPFEIKSAKKFDTFKGECPKFVFPLNSKVKVIQPRVEKKKTEGFMGRI RSVYPVASPQECNNMHLSTLMKCNHCDEVSWQTCDFLKATCEHCGTENLVIEGPTTCGYL PTNAVVKMPCPACQDPEIGPEHSVADYHNHSNIETRLRKGGRTRCFGGCVFAYVGCYNKR AYWVPRASADIGSGHTGITGDNVETLNEDLLEILSRERVNINIVGDFHLNEEVAIILASF SASTSAFIDTIKSLDYKSFKTIVESCGNYKVTKGKPVKGAWNIGQQRSVLTPLCGFPSQA AGVIRSIFARTLDAANHSIPDLQRAAVTILDGISEQSLRLVDAMVYTSDLLTNSVIIMAY VTGGLVQQTSQWLSNLLGTTVEKLRPIFEWIEAKLSAGVEFLKDAWEILKFLITGVFDIV KGQIQVASDNIKDCVKCFIDVVNKALEMCIDQVTIAGAKLRSLNLGEVFIAQSKGLYRQC IRGKEQLQLLMPLKAPKEVTFLEGDSHDTVLTSEEVVLKNGELEALETPVDSFTNGAIVG TPVCVNGLMLLEIKDKEQYCALSPGLLATNNVFRLKGGAPIKGVTFGEDTVWEVQGYKNV RITFELDERVDKVLNEKCSVYTVESGTEVTEFACVVAEAVVKTLQPVSDLLTNMGIDLDE WSVATFYLFDDAGEENFSSRMYCSFYPPDEEEEDDAECEEEEIDETCEHEYGTEDDYQGL PLEFGASAETVRVEEEEEEDWLDDTTEQSEIEPEPEPTPEEPVNQFTGYLKLTDNVAIKC VDIVKEAQSANPMVIVNAANIHLKHGGGVAGALNKATNGAMQKESDDYIKLNGPLTVGGS CLLSGHNLAKKCLHVVGPNLNAGEDIQLLKAAYENFNSQDILLAPLLSAGIFGAKPLQSL QVCVQTVRTQVYIAVNDKALYEQVVMDYLDNLKPRVEAPKQEEPPNTEDSKTEEKSVVQK PVDVKPKIKACIDEVTTTLEETKFLTNKLLLFADINGKLYHDSQNMLRGEDMSFLEKDAP YMVGDVITSGDITCVVIPSKKAGGTTEMLSRALKKVPVDEYITTYPGQGCAGYTLEEAKT ALKKCKSAFYVLPSEAPNAKEEILGTVSWNLREMLAHAEETRKLMPICMDVRAIMATIQR KYKGIKIQEGIVDYGVRFFFYTSKEPVASIITKLNSLNEPLVTMPIGYVTHGFNLEEAAR CMRSLKAPAVVSVSSPDAVTTYNGYLTSSSKTSEEHFVETVSLAGSYRDWSYSGQRTELG VEFLKRGDKIVYHTLESPVEFHLDGEVLSLDKLKSLLSLREVKTIKVFTTVDNTNLHTQL VDMSMTYGQQFGPTYLDGADVTKIKPHVNHEGKTFFVLPSDDTLRSEAFEYYHTLDESFL GRYMSALNHTKKWKFPQVGGLTSIKWADNNCYLSSVLLALQQLEVKFNAPALQEAYYRAR AGDAANFCALILAYSNKTVGELGDVRETMTHLLQHANLESAKRVLNVVCKHCGQKTTTLT GVEAVMYMGTLSYDNLKTGVSIPCVCGRDATQYLVQQESSFVMMSAPPAEYKLQQGTFLC ANEYTGNYQCGHYTHITAKETLYRIDGAHLTKMSEYKGPVTDVFYKETSYTTTIKPVSYK LDGVTYTEIEPKLDGYYKKDNAYYTEQPIDLVPTQPLPNASFDNFKLTCSNTKFADDLNQ MTGFTKPASRELSVTFFPDLNGDVVAIDYRHYSASFKKGAKLLHKPIVWHINQATTKTTF KPNTWCLRCLWSTKPVDTSNSFEVLAVEDTQGMDNLACESQQPTSEEVVENPTIQKEVIE CDVKTTEVVGNVILKPSDEGVKVTQELGHEDLMAAYVENTSITIKKPNELSLALGLKTIA THGIAAINSVPWSKILAYVKPFLGQAAITTSNCAKRLAQRVFNNYMPYVFTLLFQLCTFT KSTNSRIRASLPTTIAKNSVKSVAKLCLDAGINYVKSPKFSKLFTIAMWLLLLSICLGSL ICVTAAFGVLLSNFGAPSYCNGVRELYLNSSNVTTMDFCEGSFPCSICLSGLDSLDSYPA LETIQVTISSYKLDLTILGLAAEWVLAYMLFTKFFYLLGLSAIMQVFFGYFASHFISNSW LMWFIISIVQMAPVSAMVRMYIFFASFYYIWKSYVHIMDGCTSSTCMMCYKRNRATRVEC TTIVNGMKRSFYVYANGGRGFCKTHNWNCLNCDTFCTGSTFISDEVARDLSLQFKRPINP TDQSSYIVDSVAVKNGALHLYFDKAGQKTYERHPLSHFVNLDNLRANNTKGSLPINVIVF DGKSKCDESASKSASVYYSQLMCQPILLLDQALVSDVGDSTEVSVKMFDAYVDTFSATFS VPMEKLKALVATAHSELAKGVALDGVLSTFVSAARQGVVDTDVDTKDVIECLKLSHHSDL EVTGDSCNNFMLTYNKVENMTPRDLGACIDCNARHINAQVAKSHNVSLIWNVKDYMSLSE QLRKQIRSAAKKNNIPFRLTCATTRQVVNVITTKISLKGGKIVSTCFKLMLKATLLCVLA ALVCYIVMPVHTLSIHDGYTNEIIGYKAIQDGVTRDIISTDDCFANKHAGFDAWFSQRGG SYKNDKSCPVVAAIITREIGFIVPGLPGTVLRAINGDFLHFLPRVFSAVGNICYTPSKLI EYSDFATSACVLAAECTIFKDAMGKPVPYCYDTNLLEGSISYSELRPDTRYVLMDGSIIQ FPNTYLEGSVRVVTTFDAEYCRHGTCERSEVGICLSTSGRWVLNNEHYRALSGVFCGVDA MNLIANIFTPLVQPVGALDVSASVVAGGIIAILVTCAAYYFMKFRRVFGEYNHVVAANAL LFLMSFTILCLVPAYSFLPGVYSVFYLYLTFYFTNDVSFLAHLQWFAMFSPIVPFWITAI YVFCISLKHCHWFFNNYLRKRVMFNGVTFSTFEEAALCTFLLNKEMYLKLRSETLLPLTQ YNRYLALYNKYKYFSGALDTTSYREAACCHLAKALNDFSNSGADVLYQPPQTSITSAVLQ SGFRKMAFPSGKVEGCMVQVTCGTTTLNGLWLDDTVYCPRHVICTAEDMLNPNYEDLLIR KSNHSFLVQAGNVQLRVIGHSMQNCLLRLKVDTSNPKTPKYKFVRIQPGQTFSVLACYNG SPSGVYQCAMRPNHTIKGSFLNGSCGSVGFNIDYDCVSFCYMHHMELPTGVHAGTDLEGK FYGPFVDRQTAQAAGTDTTITLNVLAWLYAAVINGDRWFLNRFTTTLNDFNLVAMKYNYE PLTQDHVDILGPLSAQTGIAVLDMCAALKELLQNGMNGRTILGSTILEDEFTPFDVVRQC SGVTFQGKFKKIVKGTHHWMLLTFLTSLLILVQSTQWSLFFFVYENAFLPFTLGIMAIAA CAMLLVKHKHAFLCLFLLPSLATVAYFNMVYMPASWVMRIMTWLELADTSLSGYRLKDCV MYASALVLLILMTARTVYDDAARRVWTLMNVITLVYKVYYGNALDQAISMWALVISVTSN YSGVVTTIMFLARAIVFVCVEYYPLLFITGNTLQCIMLVYCFLGYCCCCYFGLFCLLNRY FRLTLGVYDYLVSTQEFRYMNSQGLLPPKSSIDAFKLNIKLLGIGGKPCIKVATVQSKMS DVKCTSVVLLSVLQQLRVESSSKLWAQCVQLHNDILLAKDTTEAFEKMVSLLSVLLSMQG AVDINRLCEEMLDNRATLQAIASEFSSLPSYAAYATAQEAYEQAVANGDSEVVLKKLKKS LNVAKSEFDRDAAMQRKLEKMADQAMTQMYKQARSEDKRAKVTSAMQTMLFTMLRKLDND ALNNIINNARDGCVPLNIIPLTTAAKLMVVVPDYGTYKNTCDGNTFTYASALWEIQQVVD ADSKIVQLSEINMDNSPNLAWPLIVTALRANSAVKLQNNELSPVALRQMSCAAGTTQTAC TDDNALAYYNNSKGGRFVLALLSDHQDLKWARFPKSDGTGTIYTELEPPCRFVTDTPKGP KVKYLYFIKGLNNLNRGMVLGSLAATVRLQAGNATEVPANSTVLSFCAFAVDPAKAYKDY LASGGQPITNCVKMLCTHTGTGQAITVTPEANMDQESFGGASCCLYCRCHIDHPNPKGFC DLKGKYVQIPTTCANDPVGFTLRNTVCTVCGMWKGYGCSCDQLREPLMQSADASTFLNRV CGVSAARLTPCGTGTSTDVVYRAFDIYNEKVAGFAKFLKTNCCRFQEKDEEGNLLDSYFV VKRHTMSNYQHEETIYNLVKDCPAVAVHDFFKFRVDGDMVPHISRQRLTKYTMADLVYAL RHFDEGNCDTLKEILVTYNCCDDDYFNKKDWYDFVENPDILRVYANLGERVRQSLLKTVQ FCDAMRDAGIVGVLTLDNQDLNGNWYDFGDFVQVAPGCGVPIVDSYYSLLMPILTLTRAL AAESHMDADLAKPLIKWDLLKYDFTEERLCLFDRYFKYWDQTYHPNCINCLDDRCILHCA NFNVLFSTVFPPTSFGPLVRKIFVDGVPFVVSTGYHFRELGVVHNQDVNLHSSRLSFKEL LVYAADPAMHAASGNLLLDKRTTCFSVAALTNNVAFQTVKPGNFNKDFYDFAVSKGFFKE GSSVELKHFFFAQDGNAAISDYDYYRYNLPTMCDIRQLLFVVEVVDKYFDCYDGGCINAN QVIVNNLDKSAGFPFNKWGKARLYYDSMSYEDQDALFAYTKRNVIPTITQMNLKYAISAK NRARTVAGVSICSTMTNRQFHQKLLKSIAATRGATVVIGTSKFYGGWHNMLKTVYSDVET PHLMGWDYPKCDRAMPNMLRIMASLVLARKHNTCCNLSHRFYRLANECAQVLSEMVMCGG SLYVKPGGTSSGDATTAYANSVFNICQAVTANVNALLSTDGNKIADKYVRNLQHRLYECL YRNRDVDHEFVDEFYAYLRKHFSMMILSDDAVVCYNSNYAAQGLVASIKNFKAVLYYQNN VFMSEAKCWTETDLTKGPHEFCSQHTMLVKQGDDYVYLPYPDPSRILGAGCFVDDIVKTD GTLMIERFVSLAIDAYPLTKHPNQEYADVFHLYLQYIRKLHDELTGHMLDMYSVMLTNDN TSRYWEPEFYEAMYTPHTVLQAVGACVLCNSQTSLRCGACIRRPFLCCKCCYDHVISTSH KLVLSVNPYVCNAPGCDVTDVTQLYLGGMSYYCKSHKPPISFPLCANGQVFGLYKNTCVG SDNVTDFNAIATCDWTNAGDYILANTCTERLKLFAAETLKATEETFKLSYGIATVREVLS DRELHLSWEVGKPRPPLNRNYVFTGYRVTKNSKVQIGEYTFEKGDYGDAVVYRGTTTYKL NVGDYFVLTSHTVMPLSAPTLVPQEHYVRITGLYPTLNISDEFSSNVANYQKVGMQKYST LQGPPGTGKSHFAIGLALYYPSARIVYTACSHAAVDALCEKALKYLPIDKCSRIIPARAR VECFDKFKVNSTLEQYVFCTVNALPETTADIVVFDEISMATNYDLSVVNARLRAKHYVYI GDPAQLPAPRTLLTKGTLEPEYFNSVCRLMKTIGPDMFLGTCRRCPAEIVDTVSALVYDN KLKAHKDKSAQCFKMFYKGVITHDVSSAINRPQIGVVREFLTRNPAWRKAVFISPYNSQN AVASKILGLPTQTVDSSQGSEYDYVIFTQTTETAHSCNVNRFNVAITRAKIGILCIMSDR DLYDKLQFTSLEIPRRNVATLQAENVTGLFKDCSKIITGLHPTQAPTHLSVDIKFKTEGL CVDIPGIPKDMTYRRLISMMGFKMNYQVNGYPNMFITREEAIRHVRAWIGFDVEGCHATR DAVGTNLPLQLGFSTGVNLVAVPTGYVDTENNTEFTRVNAKPPPGDQFKHLIPLMYKGLP WNVVRIKIVQMLSDTLKGLSDRVVFVLWAHGFELTSMKYFVKIGPERTCCLCDKRATCFS TSSDTYACWNHSVGFDYVYNPFMIDVQQWGFTGNLQSNHDQHCQVHGNAHVASCDAIMTR CLAVHECFVKRVDWSVEYPIIGDELRVNSACRKVQHMVVKSALLADKFPVLHDIGNPKAI KCVPQAEVEWKFYDAQPCSDKAYKIEELFYSYATHHDKFTDGVCLFWNCNVDRYPANAIV CRFDTRVLSNLNLPGCDGGSLYVNKHAFHTPAFDKSAFTNLKQLPFFYYSDSPCESHGKQ VVSDIDYVPLKSATCITRCNLGGAVCRHHANEYRQYLDAYNMMISAGFSLWIYKQFDTYN LWNTFTRLQSLENVAYNVVNKGHFDGHAGEAPVSIINNAVYTKVDGIDVEIFENKTTLPV NVAFELWAKRNIKPVPEIKILNNLGVDIAANTVIWDYKREAPAHVSTIGVCTMTDIAKKP TESACSSLTVLFDGRVEGQVDLFRNARNGVLITEGSVKGLTPSKGPAQASVNGVTLIGES VKTQFNYFKKVDGIIQQLPETYFTQSRDLEDFKPRSQMETDFLELAMDEFIQRYKLEGYA FEHIVYGDFSHGQLGGLHLMIGLAKRSQDSPLKLEDFIPMDSTVKNYFITDAQTGSSKCV CSVIDLLLDDFVEIIKSQDLSVISKVVKVTIDYAEISFMLWCKDGHVETFYPKLQASQAW QPGVAMPNLYKMQRMLLEKCDLQNYGENAVIPKGIMMNVAKYTQLCQYLNTLTLAVPYNM RVIHFGAGSDKGVAPGTAVLRQWLPTGTLLVDSDLNDFVSDADSTLIGDCATVHTANKWD LIISDMYDPRTKHVTKENDSKEGFFTYLCGFIKQKLALGGSIAVKITEHSWNADLYKLMG HFSWWTAFVTNVNASSSEAFLIGANYLGKPKEQIDGYTMHANYIFWRNTNPIQLSSYSLF DMSKFPLKLRGTAVMSLKENQINDMIYSLLEKGRLIIRENNRVVVSSDILVNN

> <PDB ID(s) of Target Chain>
9CGV,8XKO,7DTE,7C2K,9PZ0,9PYZ,9PYW,9BLF,6JYT,5C8S,5C8U,5C8T,7FAC,9NJG,9NIO,9NHU,9NHA,9NFP,9NAZ,7QIF,7QGI,5SMK,5SMI,5SMH,5SMG,5SMF,5SME,5SMD,5SMC,5SMB,5SMA,5SM9,5SM8,5SM7,5SM6,5SM5,5SM4,5SM3,5SM2,5SM1,5SM0,5SLZ,5SLY,5SLX,5SLW,5SLV,5SLU,5SLT,5SLS,5SLR,5SLQ,5SLP,5SLO,5SLN,5SLM,5SLL,5SLK,5SLJ,5SLI,5SLH,5SLG,5SLF,5SLE,5SLD,5SLC,5SLB,5SLA,5SL9,5SL8,5SL7,5SL6,5SL5,5SL4,5SL3,5SL2,5SL1,5SL0,5SKZ,5SKY,5SKX,5SKW,7R2V,2OZK,5TL7,5TL6,3E9S,4OW0,4OVZ,4MM3,3MJ5,2FE8,5Y3Q,5Y3E,9CEH,2GTB,2GT8,2A5K,7ZQW,7XAX,7RC1,7LMJ,7LMI,7LMH,7LMG,7LCQ,7LCP,7EO8,7END,7DQZ

> <UniProt (SwissProt) Recommended Name of Target Chain>
Replicase polyprotein 1ab

> <UniProt (SwissProt) Entry Name of Target Chain>
R1AB_SARS

> <UniProt (SwissProt) Primary ID of Target Chain>
P0C6X7

> <UniProt (SwissProt) Secondary ID(s) of Target Chain>
P59641 Q6WGN0 Q7T697 Q808C0 Q80BV7 Q80BV8 Q80E51

> <UniProt (SwissProt) Alternative ID(s) of Target Chain>


> <UniProt (TrEMBL) Submitted Name of Target Chain>


> <UniProt (TrEMBL) Entry Name of Target Chain>


> <UniProt (TrEMBL) Primary ID of Target Chain>


> <UniProt (TrEMBL) Secondary ID(s) of Target Chain>


> <UniProt (TrEMBL) Alternative ID(s) of Target Chain>


$$$$

JME 2024-04-29 Tue Aug 26 14:52:19 GMT-700 2025

 39 44  0  0  0  0  0  0  0  0999 V2000
    4.8497    7.1239    0.0000 C   0  0  0  0  0  0  0  0  0  0  0  0
    3.7171    6.3010    0.0000 C   0  0  0  0  0  0  0  0  0  0  0  0
    4.1497    4.9695    0.0000 N   0  0  0  0  0  0  0  0  0  0  0  0
    5.5497    4.9695    0.0000 C   0  0  0  0  0  0  0  0  0  0  0  0
    5.9824    6.3010    0.0000 C   0  0  0  0  0  0  0  0  0  0  0  0
    6.0622    7.8239    0.0000 C   0  0  0  0  0  0  0  0  0  0  0  0
    6.0622    9.2239    0.0000 N   0  0  0  0  0  0  0  0  0  0  0  0
    4.8497    9.9239    0.0000 C   0  0  0  0  0  0  0  0  0  0  0  0
    3.6373    9.2239    0.0000 C   0  0  0  0  0  0  0  0  0  0  0  0
    3.6373    7.8239    0.0000 C   0  0  0  0  0  0  0  0  0  0  0  0
    2.4249    9.9239    0.0000 C   0  0  0  0  0  0  0  0  0  0  0  0
    1.2124    9.2239    0.0000 C   0  0  0  0  0  0  0  0  0  0  0  0
    1.2124    7.8239    0.0000 C   0  0  0  0  0  0  0  0  0  0  0  0
    2.4249    7.1239    0.0000 C   0  0  0  0  0  0  0  0  0  0  0  0
    4.8497   11.3239    0.0000 O   0  0  0  0  0  0  0  0  0  0  0  0
    7.2746    9.9239    0.0000 C   0  0  0  0  0  0  0  0  0  0  0  0
    8.4870    9.2239    0.0000 C   0  0  0  0  0  0  0  0  0  0  0  0
    8.6334    7.8316    0.0000 N   0  0  0  0  0  0  0  0  0  0  0  0
   10.0028    7.5405    0.0000 N   0  0  0  0  0  0  0  0  0  0  0  0
   10.7028    8.7529    0.0000 N   0  0  0  0  0  0  0  0  0  0  0  0
    9.7660    9.7933    0.0000 C   0  0  0  0  0  0  0  0  0  0  0  0
    0.0000    7.1239    0.0000 Cl  0  0  0  0  0  0  0  0  0  0  0  0
   12.0951    8.8993    0.0000 C   0  0  0  0  0  0  0  0  0  0  0  0
    3.3268    3.8369    0.0000 C   0  0  0  0  0  0  0  0  0  0  0  0
    1.9345    3.9832    0.0000 C   0  0  0  0  0  0  0  0  0  0  0  0
    1.1116    2.8506    0.0000 N   0  0  0  0  0  0  0  0  0  0  0  0
    1.6810    1.5716    0.0000 C   0  0  0  0  0  0  0  0  0  0  0  0
    3.0734    1.4253    0.0000 C   0  0  0  0  0  0  0  0  0  0  0  0
    3.8963    2.5579    0.0000 C   0  0  0  0  0  0  0  0  0  0  0  0
    3.6428    0.1463    0.0000 C   0  0  0  0  0  0  0  0  0  0  0  0
    5.0351    0.0000    0.0000 C   0  0  0  0  0  0  0  0  0  0  0  0
    5.8580    1.1326    0.0000 C   0  0  0  0  0  0  0  0  0  0  0  0
    5.2886    2.4116    0.0000 C   0  0  0  0  0  0  0  0  0  0  0  0
    2.3205    6.2039    0.0000 O   0  0  0  0  0  0  0  0  0  0  0  0
    7.3138    6.7336    0.0000 C   0  0  0  0  0  0  0  0  0  0  0  0
    8.3542    5.7968    0.0000 N   0  0  0  0  0  0  0  0  0  0  0  0
    8.0632    4.4274    0.0000 C   0  0  0  0  0  0  0  0  0  0  0  0
    6.7317    3.9948    0.0000 C   0  0  0  0  0  0  0  0  0  0  0  0
    9.1036    3.4906    0.0000 C   0  0  0  0  0  0  0  0  0  0  0  0
  2  3  1  0  0  0  0
  3  4  1  0  0  0  0
  4  5  1  0  0  0  0
  1  5  1  0  0  0  0
  1  2  1  1  0  0  0
  6  7  1  0  0  0  0
  7  8  1  0  0  0  0
  8  9  1  0  0  0  0
  9 10  1  0  0  0  0
 11 12  1  0  0  0  0
 12 13  2  0  0  0  0
 13 14  1  0  0  0  0
 10 14  2  0  0  0  0
  9 11  2  0  0  0  0
  8 15  2  0  0  0  0
  7 16  1  0  0  0  0
 16 17  1  0  0  0  0
 18 19  2  0  0  0  0
 19 20  1  0  0  0  0
 20 21  1  0  0  0  0
 17 21  2  0  0  0  0
 17 18  1  0  0  0  0
  1 10  1  0  0  0  0
 13 22  1  0  0  0  0
 20 23  1  0  0  0  0
  3 24  1  0  0  0  0
 25 26  1  0  0  0  0
 26 27  2  0  0  0  0
 27 28  1  0  0  0  0
 28 29  2  0  0  0  0
 24 29  1  0  0  0  0
 24 25  2  0  0  0  0
 30 31  2  0  0  0  0
 31 32  1  0  0  0  0
 32 33  2  0  0  0  0
 29 33  1  0  0  0  0
 28 30  1  0  0  0  0
  2 34  2  0  0  0  0
  5 35  1  1  0  0  0
 35 36  1  0  0  0  0
 36 37  1  0  0  0  0
 37 38  1  0  0  0  0
 37 39  1  0  0  0  0
  1  6  1  0  0  0  0
M  END
> <From>
www.bindingDB.org

> <BindingDB Reactant_set_id>
1515165

> <Ligand InChI>


> <Ligand InChI Key>


> <BindingDB MonomerID>
736193

> <BindingDB Ligand Name>
(4S,4'S)-6-chloro-4'-[(isopropylamino)methyl]-1'-(4-isoquinolyl)-2-[(1-methyltriazol-4-yl)methyl]spiro[3H-isoquinoUne-4,3'-pyrrolidine]-1,2,-dione::WO2025125695, Example 1

> <Target Name>
Transmembrane protease serine 2

> <Target Source Organism According to Curator or DataSource>
Homo sapiens

> <Ki (nM)>


> <IC50 (nM)>


> <Kd (nM)>


> <EC50 (nM)>
 17

> <kon (M-1-s-1)>


> <koff (s-1)>


> <pH>


> <Temp C>


> <Curation/DataSource>
WIPO

> <Article DOI>


> <BindingDB Entry DOI>
10.7270/Q2805754

> <PMID>


> <PubChem AID>


> <Patent Number>
WO2025125695

> <Authors>
GRIFFEN, EJ; COUSINS, DL; STACEY-JEPSON, JE; LEFKER, BA; ROBINSON, RP

> <Date of publication>
4/23/2025

> <Date in BindingDB>
8/28/2025

> <Institution>
Medchemica

> <Link to Ligand in BindingDB>
http://www.bindingdb.org/bind/chemsearch/marvin/MolStructure.jsp?monomerid=736193

> <Link to Ligand-Target Pair in BindingDB>
http://www.bindingdb.org/rwd/jsp/dbsearch/PrimarySearch_ki.jsp?energyterm=kJ/mole&tag=pol&polymerid=50004796&target=Transmembrane+protease+serine+2&column=ki&startPg=0&Increment=50&submit=Search

> <Link to Ligand-Target Pair in BindingDB>
http://www.bindingdb.org/rwd/jsp/dbsearch/PrimarySearch_ki.jsp?energyterm=kJ/mole&tag=r21&monomerid=736193&enzyme=Transmembrane+protease+serine+2&column=ki&startPg=0&Increment=50&submit=Search

> <Ligand HET ID in PDB>


> <PDB ID(s) for Ligand-Target Complex>


> <PubChem CID of Ligand>
175670502

> <PubChem SID of Ligand>
518296816

> <ChEBI ID of Ligand>


> <ChEMBL ID of Ligand>


> <DrugBank ID of Ligand>


> <IUPHAR_GRAC ID of Ligand>


> <KEGG ID of Ligand>


> <ZINC ID of Ligand>


> <Number of Protein Chains in Target (bigger than 1 implies a multichain complex)>
1

> <BindingDB Target Chain Sequence>
MALNSGSPPAIGPYYENHGYQPENPYPAQPTVVPTVYEVHPAQYYPSPVPQYAPRVLTQASNPVVCTQPKSPSGTVCTSKTKKALCITLTLGTFLVGAALAAGLLWKFMGSKCSNSGIECDSSGTCINPSNWCDGVSHCPGGEDENRCVRLYGPNFILQVYSSQRKSWHPVCQDDWNENYGRAACRDMGYKNNFYSSQGIVDDSGSTSFMKLNTSAGNVDIYKKLYHSDACSSKAVVSLRCIACGVNLNSSRQSRIVGGESALPGAWPWQVSLHVQNVHVCGGSIITPEWIVTAAHCVEKPLNNPWHWTAFAGILRQSFMFYGAGYQVEKVISHPNYDSKTKNNDIALMKLQKPLTFNDLVKPVCLPNPGMMLQPEQLCWISGWGATEEKGKTSEVLNAAKVLLIETQRCNSRYVYDNLITPAMICAGFLQGNVDSCQGDSGGPLVTSKNNIWWLIGDTSWGSGCAKAYRPGVYGNVMVFTDWIYRQMRADG

> <PDB ID(s) of Target Chain>
8YQQ,8YOY,9IZN,8Y1E,8Y1D,9U8G,9JD1,9JD0,9E83,8V1F,8V04,8HD8,7Y0F,7Y0E,7XYD,9JCX

> <UniProt (SwissProt) Recommended Name of Target Chain>
Transmembrane protease serine 2

> <UniProt (SwissProt) Entry Name of Target Chain>
TMPS2_HUMAN

> <UniProt (SwissProt) Primary ID of Target Chain>
O15393

> <UniProt (SwissProt) Secondary ID(s) of Target Chain>
A8K6Z8 B2R8E5 B7Z459 D3DSJ2 F8WES1 Q6GTK7 Q9BXX1

> <UniProt (SwissProt) Alternative ID(s) of Target Chain>


> <UniProt (TrEMBL) Submitted Name of Target Chain>


> <UniProt (TrEMBL) Entry Name of Target Chain>


> <UniProt (TrEMBL) Primary ID of Target Chain>


> <UniProt (TrEMBL) Secondary ID(s) of Target Chain>


> <UniProt (TrEMBL) Alternative ID(s) of Target Chain>


$$$$

JME 2024-04-29 Tue Aug 26 14:52:43 GMT-700 2025

 38 43  0  0  0  0  0  0  0  0999 V2000
    4.8497    7.1239    0.0000 C   0  0  0  0  0  0  0  0  0  0  0  0
    3.7171    6.3010    0.0000 C   0  0  0  0  0  0  0  0  0  0  0  0
    4.1497    4.9695    0.0000 N   0  0  0  0  0  0  0  0  0  0  0  0
    5.5497    4.9695    0.0000 C   0  0  0  0  0  0  0  0  0  0  0  0
    5.9824    6.3010    0.0000 C   0  0  0  0  0  0  0  0  0  0  0  0
    6.0622    7.8239    0.0000 C   0  0  0  0  0  0  0  0  0  0  0  0
    6.0622    9.2239    0.0000 N   0  0  0  0  0  0  0  0  0  0  0  0
    4.8497    9.9239    0.0000 C   0  0  0  0  0  0  0  0  0  0  0  0
    3.6373    9.2239    0.0000 C   0  0  0  0  0  0  0  0  0  0  0  0
    3.6373    7.8239    0.0000 C   0  0  0  0  0  0  0  0  0  0  0  0
    2.4249    9.9239    0.0000 C   0  0  0  0  0  0  0  0  0  0  0  0
    1.2124    9.2239    0.0000 C   0  0  0  0  0  0  0  0  0  0  0  0
    1.2124    7.8239    0.0000 C   0  0  0  0  0  0  0  0  0  0  0  0
    2.4249    7.1239    0.0000 C   0  0  0  0  0  0  0  0  0  0  0  0
    4.8497   11.3239    0.0000 O   0  0  0  0  0  0  0  0  0  0  0  0
    7.2746    9.9239    0.0000 C   0  0  0  0  0  0  0  0  0  0  0  0
    8.4870    9.2239    0.0000 C   0  0  0  0  0  0  0  0  0  0  0  0
    8.6334    7.8316    0.0000 O   0  0  0  0  0  0  0  0  0  0  0  0
   10.0028    7.5405    0.0000 N   0  0  0  0  0  0  0  0  0  0  0  0
   10.7028    8.7529    0.0000 C   0  0  0  0  0  0  0  0  0  0  0  0
    9.7660    9.7933    0.0000 C   0  0  0  0  0  0  0  0  0  0  0  0
    0.0000    7.1239    0.0000 Cl  0  0  0  0  0  0  0  0  0  0  0  0
   12.0951    8.8993    0.0000 C   0  0  0  0  0  0  0  0  0  0  0  0
    3.3268    3.8369    0.0000 C   0  0  0  0  0  0  0  0  0  0  0  0
    1.9345    3.9832    0.0000 C   0  0  0  0  0  0  0  0  0  0  0  0
    1.1116    2.8506    0.0000 N   0  0  0  0  0  0  0  0  0  0  0  0
    1.6810    1.5716    0.0000 C   0  0  0  0  0  0  0  0  0  0  0  0
    3.0734    1.4253    0.0000 C   0  0  0  0  0  0  0  0  0  0  0  0
    3.8963    2.5579    0.0000 C   0  0  0  0  0  0  0  0  0  0  0  0
    3.6428    0.1463    0.0000 C   0  0  0  0  0  0  0  0  0  0  0  0
    5.0351    0.0000    0.0000 C   0  0  0  0  0  0  0  0  0  0  0  0
    5.8580    1.1326    0.0000 C   0  0  0  0  0  0  0  0  0  0  0  0
    5.2886    2.4116    0.0000 C   0  0  0  0  0  0  0  0  0  0  0  0
    2.3205    6.2039    0.0000 O   0  0  0  0  0  0  0  0  0  0  0  0
    7.3138    6.7336    0.0000 C   0  0  0  0  0  0  0  0  0  0  0  0
    8.3542    5.7968    0.0000 N   0  0  0  0  0  0  0  0  0  0  0  0
    8.0632    4.4274    0.0000 C   0  0  0  0  0  0  0  0  0  0  0  0
    9.1036    3.4906    0.0000 C   0  0  0  0  0  0  0  0  0  0  0  0
  2  3  1  0  0  0  0
  3  4  1  0  0  0  0
  4  5  1  0  0  0  0
  1  5  1  0  0  0  0
  1  2  1  1  0  0  0
  6  7  1  0  0  0  0
  7  8  1  0  0  0  0
  8  9  1  0  0  0  0
  9 10  1  0  0  0  0
 11 12  1  0  0  0  0
 12 13  2  0  0  0  0
 13 14  1  0  0  0  0
 10 14  2  0  0  0  0
  9 11  2  0  0  0  0
  8 15  2  0  0  0  0
  7 16  1  0  0  0  0
 16 17  1  0  0  0  0
 18 19  1  0  0  0  0
 19 20  2  0  0  0  0
 20 21  1  0  0  0  0
 17 21  2  0  0  0  0
 17 18  1  0  0  0  0
  1 10  1  0  0  0  0
 13 22  1  0  0  0  0
 20 23  1  0  0  0  0
  3 24  1  0  0  0  0
 25 26  1  0  0  0  0
 26 27  2  0  0  0  0
 27 28  1  0  0  0  0
 28 29  2  0  0  0  0
 24 29  1  0  0  0  0
 24 25  2  0  0  0  0
 30 31  2  0  0  0  0
 31 32  1  0  0  0  0
 32 33  2  0  0  0  0
 29 33  1  0  0  0  0
 28 30  1  0  0  0  0
  2 34  2  0  0  0  0
  5 35  1  1  0  0  0
 35 36  1  0  0  0  0
 36 37  1  0  0  0  0
 37 38  1  0  0  0  0
  1  6  1  0  0  0  0
M  END
> <From>
www.bindingDB.org

> <BindingDB Reactant_set_id>
1515166

> <Ligand InChI>


> <Ligand InChI Key>


> <BindingDB MonomerID>
736194

> <BindingDB Ligand Name>
(4S,4'S)-6-chloro-4,-[(ethylamino)methyl]-1,-(4-isoquinolyl)-2-[(3-methylisoxazol-5-yl)methyl]spiro[3H-isoquinoUne-4,3'-pyrrolidine]-1,2,-dione::WO2025125695, Example 2

> <Target Name>
Transmembrane protease serine 2

> <Target Source Organism According to Curator or DataSource>
Homo sapiens

> <Ki (nM)>


> <IC50 (nM)>


> <Kd (nM)>


> <EC50 (nM)>
 10

> <kon (M-1-s-1)>


> <koff (s-1)>


> <pH>


> <Temp C>


> <Curation/DataSource>
WIPO

> <Article DOI>


> <BindingDB Entry DOI>
10.7270/Q2805754

> <PMID>


> <PubChem AID>


> <Patent Number>
WO2025125695

> <Authors>
GRIFFEN, EJ; COUSINS, DL; STACEY-JEPSON, JE; LEFKER, BA; ROBINSON, RP

> <Date of publication>
4/23/2025

> <Date in BindingDB>
8/28/2025

> <Institution>
Medchemica

> <Link to Ligand in BindingDB>
http://www.bindingdb.org/bind/chemsearch/marvin/MolStructure.jsp?monomerid=736194

> <Link to Ligand-Target Pair in BindingDB>
http://www.bindingdb.org/rwd/jsp/dbsearch/PrimarySearch_ki.jsp?energyterm=kJ/mole&tag=pol&polymerid=50004796&target=Transmembrane+protease+serine+2&column=ki&startPg=0&Increment=50&submit=Search

> <Link to Ligand-Target Pair in BindingDB>
http://www.bindingdb.org/rwd/jsp/dbsearch/PrimarySearch_ki.jsp?energyterm=kJ/mole&tag=r21&monomerid=736194&enzyme=Transmembrane+protease+serine+2&column=ki&startPg=0&Increment=50&submit=Search

> <Ligand HET ID in PDB>


> <PDB ID(s) for Ligand-Target Complex>


> <PubChem CID of Ligand>
176394987

> <PubChem SID of Ligand>
518296817

> <ChEBI ID of Ligand>


> <ChEMBL ID of Ligand>


> <DrugBank ID of Ligand>


> <IUPHAR_GRAC ID of Ligand>


> <KEGG ID of Ligand>


> <ZINC ID of Ligand>


> <Number of Protein Chains in Target (bigger than 1 implies a multichain complex)>
1

> <BindingDB Target Chain Sequence>
MALNSGSPPAIGPYYENHGYQPENPYPAQPTVVPTVYEVHPAQYYPSPVPQYAPRVLTQASNPVVCTQPKSPSGTVCTSKTKKALCITLTLGTFLVGAALAAGLLWKFMGSKCSNSGIECDSSGTCINPSNWCDGVSHCPGGEDENRCVRLYGPNFILQVYSSQRKSWHPVCQDDWNENYGRAACRDMGYKNNFYSSQGIVDDSGSTSFMKLNTSAGNVDIYKKLYHSDACSSKAVVSLRCIACGVNLNSSRQSRIVGGESALPGAWPWQVSLHVQNVHVCGGSIITPEWIVTAAHCVEKPLNNPWHWTAFAGILRQSFMFYGAGYQVEKVISHPNYDSKTKNNDIALMKLQKPLTFNDLVKPVCLPNPGMMLQPEQLCWISGWGATEEKGKTSEVLNAAKVLLIETQRCNSRYVYDNLITPAMICAGFLQGNVDSCQGDSGGPLVTSKNNIWWLIGDTSWGSGCAKAYRPGVYGNVMVFTDWIYRQMRADG

> <PDB ID(s) of Target Chain>
8YQQ,8YOY,9IZN,8Y1E,8Y1D,9U8G,9JD1,9JD0,9E83,8V1F,8V04,8HD8,7Y0F,7Y0E,7XYD,9JCX

> <UniProt (SwissProt) Recommended Name of Target Chain>
Transmembrane protease serine 2

> <UniProt (SwissProt) Entry Name of Target Chain>
TMPS2_HUMAN

> <UniProt (SwissProt) Primary ID of Target Chain>
O15393

> <UniProt (SwissProt) Secondary ID(s) of Target Chain>
A8K6Z8 B2R8E5 B7Z459 D3DSJ2 F8WES1 Q6GTK7 Q9BXX1

> <UniProt (SwissProt) Alternative ID(s) of Target Chain>


> <UniProt (TrEMBL) Submitted Name of Target Chain>


> <UniProt (TrEMBL) Entry Name of Target Chain>


> <UniProt (TrEMBL) Primary ID of Target Chain>


> <UniProt (TrEMBL) Secondary ID(s) of Target Chain>


> <UniProt (TrEMBL) Alternative ID(s) of Target Chain>


$$$$

JME 2024-04-29 Tue Aug 26 14:57:39 GMT-700 2025

 38 43  0  0  0  0  0  0  0  0999 V2000
    4.8497    7.1239    0.0000 C   0  0  0  0  0  0  0  0  0  0  0  0
    3.7171    6.3010    0.0000 C   0  0  0  0  0  0  0  0  0  0  0  0
    4.1497    4.9695    0.0000 N   0  0  0  0  0  0  0  0  0  0  0  0
    5.5497    4.9695    0.0000 C   0  0  0  0  0  0  0  0  0  0  0  0
    5.9824    6.3010    0.0000 C   0  0  0  0  0  0  0  0  0  0  0  0
    6.0622    7.8239    0.0000 C   0  0  0  0  0  0  0  0  0  0  0  0
    6.0622    9.2239    0.0000 N   0  0  0  0  0  0  0  0  0  0  0  0
    4.8497    9.9239    0.0000 C   0  0  0  0  0  0  0  0  0  0  0  0
    3.6373    9.2239    0.0000 C   0  0  0  0  0  0  0  0  0  0  0  0
    3.6373    7.8239    0.0000 C   0  0  0  0  0  0  0  0  0  0  0  0
    2.4249    9.9239    0.0000 C   0  0  0  0  0  0  0  0  0  0  0  0
    1.2124    9.2239    0.0000 C   0  0  0  0  0  0  0  0  0  0  0  0
    1.2124    7.8239    0.0000 C   0  0  0  0  0  0  0  0  0  0  0  0
    2.4249    7.1239    0.0000 C   0  0  0  0  0  0  0  0  0  0  0  0
    4.8497   11.3239    0.0000 O   0  0  0  0  0  0  0  0  0  0  0  0
    7.2746    9.9239    0.0000 C   0  0  0  0  0  0  0  0  0  0  0  0
    0.0000    7.1239    0.0000 Cl  0  0  0  0  0  0  0  0  0  0  0  0
    3.3268    3.8369    0.0000 C   0  0  0  0  0  0  0  0  0  0  0  0
    1.9345    3.9832    0.0000 C   0  0  0  0  0  0  0  0  0  0  0  0
    1.1116    2.8506    0.0000 N   0  0  0  0  0  0  0  0  0  0  0  0
    1.6810    1.5716    0.0000 C   0  0  0  0  0  0  0  0  0  0  0  0
    3.0734    1.4253    0.0000 C   0  0  0  0  0  0  0  0  0  0  0  0
    3.8963    2.5579    0.0000 C   0  0  0  0  0  0  0  0  0  0  0  0
    3.6428    0.1463    0.0000 C   0  0  0  0  0  0  0  0  0  0  0  0
    5.0351    0.0000    0.0000 C   0  0  0  0  0  0  0  0  0  0  0  0
    5.8580    1.1326    0.0000 C   0  0  0  0  0  0  0  0  0  0  0  0
    5.2886    2.4116    0.0000 C   0  0  0  0  0  0  0  0  0  0  0  0
    2.3205    6.2039    0.0000 O   0  0  0  0  0  0  0  0  0  0  0  0
    7.3138    6.7336    0.0000 C   0  0  0  0  0  0  0  0  0  0  0  0
    8.3542    5.7968    0.0000 N   0  0  0  0  0  0  0  0  0  0  0  0
    8.0632    4.4274    0.0000 C   0  0  0  0  0  0  0  0  0  0  0  0
    9.1036    3.4906    0.0000 C   0  0  0  0  0  0  0  0  0  0  0  0
    8.4871    9.2239    0.0000 C   0  0  0  0  0  0  0  0  0  0  0  0
    8.4871    7.8239    0.0000 C   0  0  0  0  0  0  0  0  0  0  0  0
    9.6995    7.1239    0.0000 C   0  0  0  0  0  0  0  0  0  0  0  0
   10.9119    7.8240    0.0000 O   0  0  0  0  0  0  0  0  0  0  0  0
   10.9119    9.2240    0.0000 C   0  0  0  0  0  0  0  0  0  0  0  0
    9.6995    9.9239    0.0000 C   0  0  0  0  0  0  0  0  0  0  0  0
  2  3  1  0  0  0  0
  3  4  1  0  0  0  0
  4  5  1  0  0  0  0
  1  5  1  0  0  0  0
  1  2  1  1  0  0  0
  6  7  1  0  0  0  0
  7  8  1  0  0  0  0
  8  9  1  0  0  0  0
  9 10  1  0  0  0  0
 11 12  1  0  0  0  0
 12 13  2  0  0  0  0
 13 14  1  0  0  0  0
 10 14  2  0  0  0  0
  9 11  2  0  0  0  0
  8 15  2  0  0  0  0
  7 16  1  0  0  0  0
  1 10  1  0  0  0  0
 13 17  1  0  0  0  0
  3 18  1  0  0  0  0
 19 20  1  0  0  0  0
 20 21  2  0  0  0  0
 21 22  1  0  0  0  0
 22 23  2  0  0  0  0
 18 23  1  0  0  0  0
 18 19  2  0  0  0  0
 24 25  2  0  0  0  0
 25 26  1  0  0  0  0
 26 27  2  0  0  0  0
 23 27  1  0  0  0  0
 22 24  1  0  0  0  0
  2 28  2  0  0  0  0
  5 29  1  1  0  0  0
 29 30  1  0  0  0  0
 30 31  1  0  0  0  0
 31 32  1  0  0  0  0
 16 33  1  0  0  0  0
 34 35  1  0  0  0  0
 35 36  1  0  0  0  0
 36 37  1  0  0  0  0
 37 38  1  0  0  0  0
 33 38  1  0  0  0  0
 33 34  1  0  0  0  0
  1  6  1  0  0  0  0
M  END
> <From>
www.bindingDB.org

> <BindingDB Reactant_set_id>
1515167

> <Ligand InChI>


> <Ligand InChI Key>


> <BindingDB MonomerID>
736195

> <BindingDB Ligand Name>
(4S,4'S)-6-chloro-4,-[(ethylamino)methyl]-1,-(4-isoquinolyl)-2-[(tetrahydropyran-4-ylmethyl)]spiro[3H-isoquinoUne-4,3'-pyrrolidine]-1,2,-dione::WO2025125695, Example 3

> <Target Name>
Transmembrane protease serine 2

> <Target Source Organism According to Curator or DataSource>
Homo sapiens

> <Ki (nM)>


> <IC50 (nM)>


> <Kd (nM)>


> <EC50 (nM)>
 32

> <kon (M-1-s-1)>


> <koff (s-1)>


> <pH>


> <Temp C>


> <Curation/DataSource>
WIPO

> <Article DOI>


> <BindingDB Entry DOI>
10.7270/Q2805754

> <PMID>


> <PubChem AID>


> <Patent Number>
WO2025125695

> <Authors>
GRIFFEN, EJ; COUSINS, DL; STACEY-JEPSON, JE; LEFKER, BA; ROBINSON, RP

> <Date of publication>
4/23/2025

> <Date in BindingDB>
8/28/2025

> <Institution>
Medchemica

> <Link to Ligand in BindingDB>
http://www.bindingdb.org/bind/chemsearch/marvin/MolStructure.jsp?monomerid=736195

> <Link to Ligand-Target Pair in BindingDB>
http://www.bindingdb.org/rwd/jsp/dbsearch/PrimarySearch_ki.jsp?energyterm=kJ/mole&tag=pol&polymerid=50004796&target=Transmembrane+protease+serine+2&column=ki&startPg=0&Increment=50&submit=Search

> <Link to Ligand-Target Pair in BindingDB>
http://www.bindingdb.org/rwd/jsp/dbsearch/PrimarySearch_ki.jsp?energyterm=kJ/mole&tag=r21&monomerid=736195&enzyme=Transmembrane+protease+serine+2&column=ki&startPg=0&Increment=50&submit=Search

> <Ligand HET ID in PDB>


> <PDB ID(s) for Ligand-Target Complex>


> <PubChem CID of Ligand>
176394934

> <PubChem SID of Ligand>
518296818

> <ChEBI ID of Ligand>


> <ChEMBL ID of Ligand>


> <DrugBank ID of Ligand>


> <IUPHAR_GRAC ID of Ligand>


> <KEGG ID of Ligand>


> <ZINC ID of Ligand>


> <Number of Protein Chains in Target (bigger than 1 implies a multichain complex)>
1

> <BindingDB Target Chain Sequence>
MALNSGSPPAIGPYYENHGYQPENPYPAQPTVVPTVYEVHPAQYYPSPVPQYAPRVLTQASNPVVCTQPKSPSGTVCTSKTKKALCITLTLGTFLVGAALAAGLLWKFMGSKCSNSGIECDSSGTCINPSNWCDGVSHCPGGEDENRCVRLYGPNFILQVYSSQRKSWHPVCQDDWNENYGRAACRDMGYKNNFYSSQGIVDDSGSTSFMKLNTSAGNVDIYKKLYHSDACSSKAVVSLRCIACGVNLNSSRQSRIVGGESALPGAWPWQVSLHVQNVHVCGGSIITPEWIVTAAHCVEKPLNNPWHWTAFAGILRQSFMFYGAGYQVEKVISHPNYDSKTKNNDIALMKLQKPLTFNDLVKPVCLPNPGMMLQPEQLCWISGWGATEEKGKTSEVLNAAKVLLIETQRCNSRYVYDNLITPAMICAGFLQGNVDSCQGDSGGPLVTSKNNIWWLIGDTSWGSGCAKAYRPGVYGNVMVFTDWIYRQMRADG

> <PDB ID(s) of Target Chain>
8YQQ,8YOY,9IZN,8Y1E,8Y1D,9U8G,9JD1,9JD0,9E83,8V1F,8V04,8HD8,7Y0F,7Y0E,7XYD,9JCX

> <UniProt (SwissProt) Recommended Name of Target Chain>
Transmembrane protease serine 2

> <UniProt (SwissProt) Entry Name of Target Chain>
TMPS2_HUMAN

> <UniProt (SwissProt) Primary ID of Target Chain>
O15393

> <UniProt (SwissProt) Secondary ID(s) of Target Chain>
A8K6Z8 B2R8E5 B7Z459 D3DSJ2 F8WES1 Q6GTK7 Q9BXX1

> <UniProt (SwissProt) Alternative ID(s) of Target Chain>


> <UniProt (TrEMBL) Submitted Name of Target Chain>


> <UniProt (TrEMBL) Entry Name of Target Chain>


> <UniProt (TrEMBL) Primary ID of Target Chain>


> <UniProt (TrEMBL) Secondary ID(s) of Target Chain>


> <UniProt (TrEMBL) Alternative ID(s) of Target Chain>


$$$$

JME 2024-04-29 Tue Aug 26 14:55:24 GMT-700 2025

 39 44  0  0  0  0  0  0  0  0999 V2000
    4.8497    7.1239    0.0000 C   0  0  0  0  0  0  0  0  0  0  0  0
    3.7171    6.3010    0.0000 C   0  0  0  0  0  0  0  0  0  0  0  0
    4.1497    4.9695    0.0000 N   0  0  0  0  0  0  0  0  0  0  0  0
    5.5497    4.9695    0.0000 C   0  0  0  0  0  0  0  0  0  0  0  0
    5.9824    6.3010    0.0000 C   0  0  0  0  0  0  0  0  0  0  0  0
    6.0622    7.8239    0.0000 C   0  0  0  0  0  0  0  0  0  0  0  0
    6.0622    9.2239    0.0000 N   0  0  0  0  0  0  0  0  0  0  0  0
    4.8497    9.9239    0.0000 C   0  0  0  0  0  0  0  0  0  0  0  0
    3.6373    9.2239    0.0000 C   0  0  0  0  0  0  0  0  0  0  0  0
    3.6373    7.8239    0.0000 C   0  0  0  0  0  0  0  0  0  0  0  0
    2.4249    9.9239    0.0000 C   0  0  0  0  0  0  0  0  0  0  0  0
    1.2124    9.2239    0.0000 C   0  0  0  0  0  0  0  0  0  0  0  0
    1.2124    7.8239    0.0000 C   0  0  0  0  0  0  0  0  0  0  0  0
    2.4249    7.1239    0.0000 C   0  0  0  0  0  0  0  0  0  0  0  0
    4.8497   11.3239    0.0000 O   0  0  0  0  0  0  0  0  0  0  0  0
    7.2746    9.9239    0.0000 C   0  0  0  0  0  0  0  0  0  0  0  0
    0.0000    7.1239    0.0000 Cl  0  0  0  0  0  0  0  0  0  0  0  0
    3.3268    3.8369    0.0000 C   0  0  0  0  0  0  0  0  0  0  0  0
    1.9345    3.9832    0.0000 C   0  0  0  0  0  0  0  0  0  0  0  0
    1.1116    2.8506    0.0000 N   0  0  0  0  0  0  0  0  0  0  0  0
    1.6810    1.5716    0.0000 C   0  0  0  0  0  0  0  0  0  0  0  0
    3.0734    1.4253    0.0000 C   0  0  0  0  0  0  0  0  0  0  0  0
    3.8963    2.5579    0.0000 C   0  0  0  0  0  0  0  0  0  0  0  0
    3.6428    0.1463    0.0000 C   0  0  0  0  0  0  0  0  0  0  0  0
    5.0351    0.0000    0.0000 C   0  0  0  0  0  0  0  0  0  0  0  0
    5.8580    1.1326    0.0000 C   0  0  0  0  0  0  0  0  0  0  0  0
    5.2886    2.4116    0.0000 C   0  0  0  0  0  0  0  0  0  0  0  0
    2.3205    6.2039    0.0000 O   0  0  0  0  0  0  0  0  0  0  0  0
    7.3138    6.7336    0.0000 C   0  0  0  0  0  0  0  0  0  0  0  0
    8.3542    5.7968    0.0000 N   0  0  0  0  0  0  0  0  0  0  0  0
    8.0632    4.4274    0.0000 C   0  0  0  0  0  0  0  0  0  0  0  0
    9.1036    3.4906    0.0000 C   0  0  0  0  0  0  0  0  0  0  0  0
    8.4871    9.2239    0.0000 C   0  0  0  0  0  0  0  0  0  0  0  0
    8.4871    7.8239    0.0000 C   0  0  0  0  0  0  0  0  0  0  0  0
    9.6995    7.1239    0.0000 C   0  0  0  0  0  0  0  0  0  0  0  0
   10.9119    7.8240    0.0000 N   0  0  0  0  0  0  0  0  0  0  0  0
   10.9119    9.2240    0.0000 C   0  0  0  0  0  0  0  0  0  0  0  0
    9.6995    9.9239    0.0000 N   0  0  0  0  0  0  0  0  0  0  0  0
    9.6995    5.7239    0.0000 C   0  0  0  0  0  0  0  0  0  0  0  0
  2  3  1  0  0  0  0
  3  4  1  0  0  0  0
  4  5  1  0  0  0  0
  1  5  1  0  0  0  0
  1  2  1  1  0  0  0
  6  7  1  0  0  0  0
  7  8  1  0  0  0  0
  8  9  1  0  0  0  0
  9 10  1  0  0  0  0
 11 12  1  0  0  0  0
 12 13  2  0  0  0  0
 13 14  1  0  0  0  0
 10 14  2  0  0  0  0
  9 11  2  0  0  0  0
  8 15  2  0  0  0  0
  7 16  1  0  0  0  0
  1 10  1  0  0  0  0
 13 17  1  0  0  0  0
  3 18  1  0  0  0  0
 19 20  1  0  0  0  0
 20 21  2  0  0  0  0
 21 22  1  0  0  0  0
 22 23  2  0  0  0  0
 18 23  1  0  0  0  0
 18 19  2  0  0  0  0
 24 25  2  0  0  0  0
 25 26  1  0  0  0  0
 26 27  2  0  0  0  0
 23 27  1  0  0  0  0
 22 24  1  0  0  0  0
  2 28  2  0  0  0  0
  5 29  1  1  0  0  0
 29 30  1  0  0  0  0
 30 31  1  0  0  0  0
 31 32  1  0  0  0  0
 16 33  1  0  0  0  0
 34 35  2  0  0  0  0
 35 36  1  0  0  0  0
 36 37  2  0  0  0  0
 37 38  1  0  0  0  0
 33 38  2  0  0  0  0
 33 34  1  0  0  0  0
  1  6  1  0  0  0  0
 35 39  1  0  0  0  0
M  END
> <From>
www.bindingDB.org

> <BindingDB Reactant_set_id>
1515168

> <Ligand InChI>


> <Ligand InChI Key>


> <BindingDB MonomerID>
736196

> <BindingDB Ligand Name>
(4S,4'S)-6-chloro-4,-[(ethylamino)methyl]-1,-(4-isoquinolyl)-2-[(6-methylpyrimidin-4-yl)methyl]spiro[3H-isoquinoUne-4,3'-pyrrolidine]-1,2,-dione::WO2025125695, Example 4

> <Target Name>
Transmembrane protease serine 2

> <Target Source Organism According to Curator or DataSource>
Homo sapiens

> <Ki (nM)>


> <IC50 (nM)>


> <Kd (nM)>


> <EC50 (nM)>
 19

> <kon (M-1-s-1)>


> <koff (s-1)>


> <pH>


> <Temp C>


> <Curation/DataSource>
WIPO

> <Article DOI>


> <BindingDB Entry DOI>
10.7270/Q2805754

> <PMID>


> <PubChem AID>


> <Patent Number>
WO2025125695

> <Authors>
GRIFFEN, EJ; COUSINS, DL; STACEY-JEPSON, JE; LEFKER, BA; ROBINSON, RP

> <Date of publication>
4/23/2025

> <Date in BindingDB>
8/28/2025

> <Institution>
Medchemica

> <Link to Ligand in BindingDB>
http://www.bindingdb.org/bind/chemsearch/marvin/MolStructure.jsp?monomerid=736196

> <Link to Ligand-Target Pair in BindingDB>
http://www.bindingdb.org/rwd/jsp/dbsearch/PrimarySearch_ki.jsp?energyterm=kJ/mole&tag=pol&polymerid=50004796&target=Transmembrane+protease+serine+2&column=ki&startPg=0&Increment=50&submit=Search

> <Link to Ligand-Target Pair in BindingDB>
http://www.bindingdb.org/rwd/jsp/dbsearch/PrimarySearch_ki.jsp?energyterm=kJ/mole&tag=r21&monomerid=736196&enzyme=Transmembrane+protease+serine+2&column=ki&startPg=0&Increment=50&submit=Search

> <Ligand HET ID in PDB>


> <PDB ID(s) for Ligand-Target Complex>


> <PubChem CID of Ligand>
176394957

> <PubChem SID of Ligand>
518296819

> <ChEBI ID of Ligand>


> <ChEMBL ID of Ligand>


> <DrugBank ID of Ligand>


> <IUPHAR_GRAC ID of Ligand>


> <KEGG ID of Ligand>


> <ZINC ID of Ligand>


> <Number of Protein Chains in Target (bigger than 1 implies a multichain complex)>
1

> <BindingDB Target Chain Sequence>
MALNSGSPPAIGPYYENHGYQPENPYPAQPTVVPTVYEVHPAQYYPSPVPQYAPRVLTQASNPVVCTQPKSPSGTVCTSKTKKALCITLTLGTFLVGAALAAGLLWKFMGSKCSNSGIECDSSGTCINPSNWCDGVSHCPGGEDENRCVRLYGPNFILQVYSSQRKSWHPVCQDDWNENYGRAACRDMGYKNNFYSSQGIVDDSGSTSFMKLNTSAGNVDIYKKLYHSDACSSKAVVSLRCIACGVNLNSSRQSRIVGGESALPGAWPWQVSLHVQNVHVCGGSIITPEWIVTAAHCVEKPLNNPWHWTAFAGILRQSFMFYGAGYQVEKVISHPNYDSKTKNNDIALMKLQKPLTFNDLVKPVCLPNPGMMLQPEQLCWISGWGATEEKGKTSEVLNAAKVLLIETQRCNSRYVYDNLITPAMICAGFLQGNVDSCQGDSGGPLVTSKNNIWWLIGDTSWGSGCAKAYRPGVYGNVMVFTDWIYRQMRADG

> <PDB ID(s) of Target Chain>
8YQQ,8YOY,9IZN,8Y1E,8Y1D,9U8G,9JD1,9JD0,9E83,8V1F,8V04,8HD8,7Y0F,7Y0E,7XYD,9JCX

> <UniProt (SwissProt) Recommended Name of Target Chain>
Transmembrane protease serine 2

> <UniProt (SwissProt) Entry Name of Target Chain>
TMPS2_HUMAN

> <UniProt (SwissProt) Primary ID of Target Chain>
O15393

> <UniProt (SwissProt) Secondary ID(s) of Target Chain>
A8K6Z8 B2R8E5 B7Z459 D3DSJ2 F8WES1 Q6GTK7 Q9BXX1

> <UniProt (SwissProt) Alternative ID(s) of Target Chain>


> <UniProt (TrEMBL) Submitted Name of Target Chain>


> <UniProt (TrEMBL) Entry Name of Target Chain>


> <UniProt (TrEMBL) Primary ID of Target Chain>


> <UniProt (TrEMBL) Secondary ID(s) of Target Chain>


> <UniProt (TrEMBL) Alternative ID(s) of Target Chain>


$$$$

JME 2024-04-29 Tue Aug 26 15:05:40 GMT-700 2025

 39 44  0  0  0  0  0  0  0  0999 V2000
    4.8497    7.1239    0.0000 C   0  0  0  0  0  0  0  0  0  0  0  0
    3.7171    6.3010    0.0000 C   0  0  0  0  0  0  0  0  0  0  0  0
    4.1497    4.9695    0.0000 N   0  0  0  0  0  0  0  0  0  0  0  0
    5.5497    4.9695    0.0000 C   0  0  0  0  0  0  0  0  0  0  0  0
    5.9824    6.3010    0.0000 C   0  0  0  0  0  0  0  0  0  0  0  0
    6.0622    7.8239    0.0000 C   0  0  0  0  0  0  0  0  0  0  0  0
    6.0622    9.2239    0.0000 N   0  0  0  0  0  0  0  0  0  0  0  0
    4.8497    9.9239    0.0000 C   0  0  0  0  0  0  0  0  0  0  0  0
    3.6373    9.2239    0.0000 C   0  0  0  0  0  0  0  0  0  0  0  0
    3.6373    7.8239    0.0000 C   0  0  0  0  0  0  0  0  0  0  0  0
    2.4249    9.9239    0.0000 C   0  0  0  0  0  0  0  0  0  0  0  0
    1.2124    9.2239    0.0000 C   0  0  0  0  0  0  0  0  0  0  0  0
    1.2124    7.8239    0.0000 C   0  0  0  0  0  0  0  0  0  0  0  0
    2.4249    7.1239    0.0000 C   0  0  0  0  0  0  0  0  0  0  0  0
    4.8497   11.3239    0.0000 O   0  0  0  0  0  0  0  0  0  0  0  0
    7.2746    9.9239    0.0000 C   0  0  0  0  0  0  0  0  0  0  0  0
    0.0000    7.1239    0.0000 Cl  0  0  0  0  0  0  0  0  0  0  0  0
    3.3268    3.8369    0.0000 C   0  0  0  0  0  0  0  0  0  0  0  0
    1.9345    3.9832    0.0000 C   0  0  0  0  0  0  0  0  0  0  0  0
    1.1116    2.8506    0.0000 N   0  0  0  0  0  0  0  0  0  0  0  0
    1.6810    1.5716    0.0000 C   0  0  0  0  0  0  0  0  0  0  0  0
    3.0734    1.4253    0.0000 C   0  0  0  0  0  0  0  0  0  0  0  0
    3.8963    2.5579    0.0000 C   0  0  0  0  0  0  0  0  0  0  0  0
    3.6428    0.1463    0.0000 C   0  0  0  0  0  0  0  0  0  0  0  0
    5.0351    0.0000    0.0000 C   0  0  0  0  0  0  0  0  0  0  0  0
    5.8580    1.1326    0.0000 C   0  0  0  0  0  0  0  0  0  0  0  0
    5.2886    2.4116    0.0000 C   0  0  0  0  0  0  0  0  0  0  0  0
    2.3205    6.2039    0.0000 O   0  0  0  0  0  0  0  0  0  0  0  0
    7.3138    6.7336    0.0000 C   0  0  0  0  0  0  0  0  0  0  0  0
    8.3542    5.7968    0.0000 N   0  0  0  0  0  0  0  0  0  0  0  0
    8.0632    4.4274    0.0000 C   0  0  0  0  0  0  0  0  0  0  0  0
    9.1036    3.4906    0.0000 C   0  0  0  0  0  0  0  0  0  0  0  0
    8.4871    9.2239    0.0000 C   0  0  0  0  0  0  0  0  0  0  0  0
    8.4871    7.8239    0.0000 C   0  0  0  0  0  0  0  0  0  0  0  0
    9.6995    7.1239    0.0000 C   0  0  0  0  0  0  0  0  0  0  0  0
   10.9119    7.8240    0.0000 O   0  0  0  0  0  0  0  0  0  0  0  0
   10.9119    9.2240    0.0000 C   0  0  0  0  0  0  0  0  0  0  0  0
    9.6995    9.9239    0.0000 C   0  0  0  0  0  0  0  0  0  0  0  0
    6.7317    3.9948    0.0000 C   0  0  0  0  0  0  0  0  0  0  0  0
  2  3  1  0  0  0  0
  3  4  1  0  0  0  0
  4  5  1  0  0  0  0
  1  5  1  0  0  0  0
  1  2  1  1  0  0  0
  6  7  1  0  0  0  0
  7  8  1  0  0  0  0
  8  9  1  0  0  0  0
  9 10  1  0  0  0  0
 11 12  1  0  0  0  0
 12 13  2  0  0  0  0
 13 14  1  0  0  0  0
 10 14  2  0  0  0  0
  9 11  2  0  0  0  0
  8 15  2  0  0  0  0
  7 16  1  0  0  0  0
  1 10  1  0  0  0  0
 13 17  1  0  0  0  0
  3 18  1  0  0  0  0
 19 20  1  0  0  0  0
 20 21  2  0  0  0  0
 21 22  1  0  0  0  0
 22 23  2  0  0  0  0
 18 23  1  0  0  0  0
 18 19  2  0  0  0  0
 24 25  2  0  0  0  0
 25 26  1  0  0  0  0
 26 27  2  0  0  0  0
 23 27  1  0  0  0  0
 22 24  1  0  0  0  0
  2 28  2  0  0  0  0
  5 29  1  1  0  0  0
 29 30  1  0  0  0  0
 30 31  1  0  0  0  0
 31 32  1  0  0  0  0
 16 33  1  0  0  0  0
 34 35  1  0  0  0  0
 35 36  1  0  0  0  0
 36 37  1  0  0  0  0
 37 38  1  0  0  0  0
 33 38  1  0  0  0  0
 33 34  1  0  0  0  0
  1  6  1  0  0  0  0
 31 39  1  0  0  0  0
M  END
> <From>
www.bindingDB.org

> <BindingDB Reactant_set_id>
1515169

> <Ligand InChI>


> <Ligand InChI Key>


> <BindingDB MonomerID>
736197

> <BindingDB Ligand Name>
(4S,4'S)-6-chloro-4,-[(ethylamino)methyl]-1,-(4-isoquinolyl)-2-[(6-methylpyrimidin-4-yl)methyl]spiro[3H-isoquinoUne-4,3'-pyrrolidine]-1,2,-dione::WO2025125695, Example 5

> <Target Name>
Transmembrane protease serine 2

> <Target Source Organism According to Curator or DataSource>
Homo sapiens

> <Ki (nM)>


> <IC50 (nM)>


> <Kd (nM)>


> <EC50 (nM)>
 52

> <kon (M-1-s-1)>


> <koff (s-1)>


> <pH>


> <Temp C>


> <Curation/DataSource>
WIPO

> <Article DOI>


> <BindingDB Entry DOI>
10.7270/Q2805754

> <PMID>


> <PubChem AID>


> <Patent Number>
WO2025125695

> <Authors>
GRIFFEN, EJ; COUSINS, DL; STACEY-JEPSON, JE; LEFKER, BA; ROBINSON, RP

> <Date of publication>
4/23/2025

> <Date in BindingDB>
8/28/2025

> <Institution>
Medchemica

> <Link to Ligand in BindingDB>
http://www.bindingdb.org/bind/chemsearch/marvin/MolStructure.jsp?monomerid=736197

> <Link to Ligand-Target Pair in BindingDB>
http://www.bindingdb.org/rwd/jsp/dbsearch/PrimarySearch_ki.jsp?energyterm=kJ/mole&tag=pol&polymerid=50004796&target=Transmembrane+protease+serine+2&column=ki&startPg=0&Increment=50&submit=Search

> <Link to Ligand-Target Pair in BindingDB>
http://www.bindingdb.org/rwd/jsp/dbsearch/PrimarySearch_ki.jsp?energyterm=kJ/mole&tag=r21&monomerid=736197&enzyme=Transmembrane+protease+serine+2&column=ki&startPg=0&Increment=50&submit=Search

> <Ligand HET ID in PDB>


> <PDB ID(s) for Ligand-Target Complex>


> <PubChem CID of Ligand>
176394998

> <PubChem SID of Ligand>
518296820

> <ChEBI ID of Ligand>


> <ChEMBL ID of Ligand>


> <DrugBank ID of Ligand>


> <IUPHAR_GRAC ID of Ligand>


> <KEGG ID of Ligand>


> <ZINC ID of Ligand>


> <Number of Protein Chains in Target (bigger than 1 implies a multichain complex)>
1

> <BindingDB Target Chain Sequence>
MALNSGSPPAIGPYYENHGYQPENPYPAQPTVVPTVYEVHPAQYYPSPVPQYAPRVLTQASNPVVCTQPKSPSGTVCTSKTKKALCITLTLGTFLVGAALAAGLLWKFMGSKCSNSGIECDSSGTCINPSNWCDGVSHCPGGEDENRCVRLYGPNFILQVYSSQRKSWHPVCQDDWNENYGRAACRDMGYKNNFYSSQGIVDDSGSTSFMKLNTSAGNVDIYKKLYHSDACSSKAVVSLRCIACGVNLNSSRQSRIVGGESALPGAWPWQVSLHVQNVHVCGGSIITPEWIVTAAHCVEKPLNNPWHWTAFAGILRQSFMFYGAGYQVEKVISHPNYDSKTKNNDIALMKLQKPLTFNDLVKPVCLPNPGMMLQPEQLCWISGWGATEEKGKTSEVLNAAKVLLIETQRCNSRYVYDNLITPAMICAGFLQGNVDSCQGDSGGPLVTSKNNIWWLIGDTSWGSGCAKAYRPGVYGNVMVFTDWIYRQMRADG

> <PDB ID(s) of Target Chain>
8YQQ,8YOY,9IZN,8Y1E,8Y1D,9U8G,9JD1,9JD0,9E83,8V1F,8V04,8HD8,7Y0F,7Y0E,7XYD,9JCX

> <UniProt (SwissProt) Recommended Name of Target Chain>
Transmembrane protease serine 2

> <UniProt (SwissProt) Entry Name of Target Chain>
TMPS2_HUMAN

> <UniProt (SwissProt) Primary ID of Target Chain>
O15393

> <UniProt (SwissProt) Secondary ID(s) of Target Chain>
A8K6Z8 B2R8E5 B7Z459 D3DSJ2 F8WES1 Q6GTK7 Q9BXX1

> <UniProt (SwissProt) Alternative ID(s) of Target Chain>


> <UniProt (TrEMBL) Submitted Name of Target Chain>


> <UniProt (TrEMBL) Entry Name of Target Chain>


> <UniProt (TrEMBL) Primary ID of Target Chain>


> <UniProt (TrEMBL) Secondary ID(s) of Target Chain>


> <UniProt (TrEMBL) Alternative ID(s) of Target Chain>


$$$$

JME 2024-04-29 Tue Aug 26 14:52:19 GMT-700 2025

 39 44  0  0  0  0  0  0  0  0999 V2000
    4.8497    7.1239    0.0000 C   0  0  0  0  0  0  0  0  0  0  0  0
    3.7171    6.3010    0.0000 C   0  0  0  0  0  0  0  0  0  0  0  0
    4.1497    4.9695    0.0000 N   0  0  0  0  0  0  0  0  0  0  0  0
    5.5497    4.9695    0.0000 C   0  0  0  0  0  0  0  0  0  0  0  0
    5.9824    6.3010    0.0000 C   0  0  0  0  0  0  0  0  0  0  0  0
    6.0622    7.8239    0.0000 C   0  0  0  0  0  0  0  0  0  0  0  0
    6.0622    9.2239    0.0000 N   0  0  0  0  0  0  0  0  0  0  0  0
    4.8497    9.9239    0.0000 C   0  0  0  0  0  0  0  0  0  0  0  0
    3.6373    9.2239    0.0000 C   0  0  0  0  0  0  0  0  0  0  0  0
    3.6373    7.8239    0.0000 C   0  0  0  0  0  0  0  0  0  0  0  0
    2.4249    9.9239    0.0000 C   0  0  0  0  0  0  0  0  0  0  0  0
    1.2124    9.2239    0.0000 C   0  0  0  0  0  0  0  0  0  0  0  0
    1.2124    7.8239    0.0000 C   0  0  0  0  0  0  0  0  0  0  0  0
    2.4249    7.1239    0.0000 C   0  0  0  0  0  0  0  0  0  0  0  0
    4.8497   11.3239    0.0000 O   0  0  0  0  0  0  0  0  0  0  0  0
    7.2746    9.9239    0.0000 C   0  0  0  0  0  0  0  0  0  0  0  0
    8.4870    9.2239    0.0000 C   0  0  0  0  0  0  0  0  0  0  0  0
    8.6334    7.8316    0.0000 N   0  0  0  0  0  0  0  0  0  0  0  0
   10.0028    7.5405    0.0000 N   0  0  0  0  0  0  0  0  0  0  0  0
   10.7028    8.7529    0.0000 N   0  0  0  0  0  0  0  0  0  0  0  0
    9.7660    9.7933    0.0000 C   0  0  0  0  0  0  0  0  0  0  0  0
    0.0000    7.1239    0.0000 Cl  0  0  0  0  0  0  0  0  0  0  0  0
   12.0951    8.8993    0.0000 C   0  0  0  0  0  0  0  0  0  0  0  0
    3.3268    3.8369    0.0000 C   0  0  0  0  0  0  0  0  0  0  0  0
    1.9345    3.9832    0.0000 C   0  0  0  0  0  0  0  0  0  0  0  0
    1.1116    2.8506    0.0000 N   0  0  0  0  0  0  0  0  0  0  0  0
    1.6810    1.5716    0.0000 C   0  0  0  0  0  0  0  0  0  0  0  0
    3.0734    1.4253    0.0000 C   0  0  0  0  0  0  0  0  0  0  0  0
    3.8963    2.5579    0.0000 C   0  0  0  0  0  0  0  0  0  0  0  0
    3.6428    0.1463    0.0000 C   0  0  0  0  0  0  0  0  0  0  0  0
    5.0351    0.0000    0.0000 C   0  0  0  0  0  0  0  0  0  0  0  0
    5.8580    1.1326    0.0000 C   0  0  0  0  0  0  0  0  0  0  0  0
    5.2886    2.4116    0.0000 C   0  0  0  0  0  0  0  0  0  0  0  0
    2.3205    6.2039    0.0000 O   0  0  0  0  0  0  0  0  0  0  0  0
    7.3138    6.7336    0.0000 C   0  0  0  0  0  0  0  0  0  0  0  0
    8.3542    5.7968    0.0000 N   0  0  0  0  0  0  0  0  0  0  0  0
    8.0632    4.4274    0.0000 C   0  0  0  0  0  0  0  0  0  0  0  0
    6.7317    3.9948    0.0000 C   0  0  0  0  0  0  0  0  0  0  0  0
    9.1036    3.4906    0.0000 C   0  0  0  0  0  0  0  0  0  0  0  0
  2  3  1  0  0  0  0
  3  4  1  0  0  0  0
  4  5  1  0  0  0  0
  1  5  1  0  0  0  0
  1  2  1  1  0  0  0
  6  7  1  0  0  0  0
  7  8  1  0  0  0  0
  8  9  1  0  0  0  0
  9 10  1  0  0  0  0
 11 12  1  0  0  0  0
 12 13  2  0  0  0  0
 13 14  1  0  0  0  0
 10 14  2  0  0  0  0
  9 11  2  0  0  0  0
  8 15  2  0  0  0  0
  7 16  1  0  0  0  0
 16 17  1  0  0  0  0
 18 19  2  0  0  0  0
 19 20  1  0  0  0  0
 20 21  1  0  0  0  0
 17 21  2  0  0  0  0
 17 18  1  0  0  0  0
  1 10  1  0  0  0  0
 13 22  1  0  0  0  0
 20 23  1  0  0  0  0
  3 24  1  0  0  0  0
 25 26  1  0  0  0  0
 26 27  2  0  0  0  0
 27 28  1  0  0  0  0
 28 29  2  0  0  0  0
 24 29  1  0  0  0  0
 24 25  2  0  0  0  0
 30 31  2  0  0  0  0
 31 32  1  0  0  0  0
 32 33  2  0  0  0  0
 29 33  1  0  0  0  0
 28 30  1  0  0  0  0
  2 34  2  0  0  0  0
  5 35  1  1  0  0  0
 35 36  1  0  0  0  0
 36 37  1  0  0  0  0
 37 38  1  0  0  0  0
 37 39  1  0  0  0  0
  1  6  1  0  0  0  0
M  END
> <From>
www.bindingDB.org

> <BindingDB Reactant_set_id>
1515170

> <Ligand InChI>


> <Ligand InChI Key>


> <BindingDB MonomerID>
736193

> <BindingDB Ligand Name>
(4S,4'S)-6-chloro-4'-[(isopropylamino)methyl]-1'-(4-isoquinolyl)-2-[(1-methyltriazol-4-yl)methyl]spiro[3H-isoquinoUne-4,3'-pyrrolidine]-1,2,-dione::WO2025125695, Example 1

> <Target Name>
Angiotensin-converting enzyme 2

> <Target Source Organism According to Curator or DataSource>
Homo sapiens

> <Ki (nM)>


> <IC50 (nM)>


> <Kd (nM)>


> <EC50 (nM)>
 34

> <kon (M-1-s-1)>


> <koff (s-1)>


> <pH>


> <Temp C>


> <Curation/DataSource>
WIPO

> <Article DOI>


> <BindingDB Entry DOI>
10.7270/Q2805754

> <PMID>


> <PubChem AID>


> <Patent Number>
WO2025125695

> <Authors>
GRIFFEN, EJ; COUSINS, DL; STACEY-JEPSON, JE; LEFKER, BA; ROBINSON, RP

> <Date of publication>
4/23/2025

> <Date in BindingDB>
8/28/2025

> <Institution>
Medchemica

> <Link to Ligand in BindingDB>
http://www.bindingdb.org/bind/chemsearch/marvin/MolStructure.jsp?monomerid=736193

> <Link to Ligand-Target Pair in BindingDB>
http://www.bindingdb.org/rwd/jsp/dbsearch/PrimarySearch_ki.jsp?energyterm=kJ/mole&tag=pol&polymerid=2160&target=Angiotensin-converting+enzyme+2&column=ki&startPg=0&Increment=50&submit=Search

> <Link to Ligand-Target Pair in BindingDB>
http://www.bindingdb.org/rwd/jsp/dbsearch/PrimarySearch_ki.jsp?energyterm=kJ/mole&tag=r21&monomerid=736193&enzyme=Angiotensin-converting+enzyme+2&column=ki&startPg=0&Increment=50&submit=Search

> <Ligand HET ID in PDB>


> <PDB ID(s) for Ligand-Target Complex>


> <PubChem CID of Ligand>
175670502

> <PubChem SID of Ligand>
518296816

> <ChEBI ID of Ligand>


> <ChEMBL ID of Ligand>


> <DrugBank ID of Ligand>


> <IUPHAR_GRAC ID of Ligand>


> <KEGG ID of Ligand>


> <ZINC ID of Ligand>


> <Number of Protein Chains in Target (bigger than 1 implies a multichain complex)>
1

> <BindingDB Target Chain Sequence>
MSSSSWLLLSLVAVTAAQSTIEEQAKTFLDKFNHEAEDLFYQSSLASWNYNTNITEENVQNMNNAGDKWSAFLKEQSTLAQMYPLQEIQNLTVKLQLQALQQNGSSVLSEDKSKRLNTILNTMSTIYSTGKVCNPDNPQECLLLEPGLNEIMANSLDYNERLWAWESWRSEVGKQLRPLYEEYVVLKNEMARANHYEDYGDYWRGDYEVNGVDGYDYSRGQLIEDVEHTFEEIKPLYEHLHAYVRAKLMNAYPSYISPIGCLPAHLLGDMWGRFWTNLYSLTVPFGQKPNIDVTDAMVDQAWDAQRIFKEAEKFFVSVGLPNMTQGFWENSMLTDPGNVQKAVCHPTAWDLGKGDFRILMCTKVTMDDFLTAHHEMGHIQYDMAYAAQPFLLRNGANEGFHEAVGEIMSLSAATPKHLKSIGLLSPDFQEDNETEINFLLKQALTIVGTLPFTYMLEKWRWMVFKGEIPKDQWMKKWWEMKREIVGVVEPVPHDETYCDPASLFHVSNDYSFIRYYTRTLYQFQFQEALCQAAKHEGPLHKCDISNSTEAGQKLFNMLRLGKSEPWTLALENVVGAKNMNVRPLLNYFEPLFTWLKDQNKNSFVGWSTDWSPYADQSIKVRISLKSALGDKAYEWNDNEMYLFRSSVAYAMRQYFLKVKNQMILFGEEDVRVANLKPRISFNFFVTAPKNVSDIIPRTEVEKAIRMSRSRINDAFRLNDNSLEFLGIQPTLGPPNQPPVSIWLIVFGVVMGVIVVGIVILIFTGIRDRKKKNKARSGENPYASIDISKGENNPGFQNTDDVQTSF

> <PDB ID(s) of Target Chain>
8WBZ,8WBY,8YZJ,8XSJ,8XSF,8WTD,8WSR,8WRH,8WE4,8WE1,8WE0,8WDZ,8WDY,8WDS,8WDR,8DF5,7XO9,7XO8,7XO7,7WPC,7WPB,7WPA,7L7F,7DQA,9KY1,9KY0,9KXZ,9KXY,9KXW,9KXV,9KXU,9KXT,8I92,8I91,7Y76,7Y75,7XID,7V61,7DX9,7DX8,7DX7,7DX6,7DX5,7DWX,6M1D,6M18,6M17,8I93,8YZE,8YZD,8YZC,8YZB,7FEM,9FMM,8XAL,7V8B,7V8A,7V89,7V88,7V87,7V86,7V85,7V84,7V83,7V82,7V81,7V80,7V7Z,7EDJ,8WGW,1R4L,1R42,8E7M,8WGV,7KJ4,7KJ3,7KJ2,7XBH,9IU1,8XVM,8XV1,8XV0,8XUZ,8XUY,8XLN,8XLM,8JYP,8JYO,8JYN,8IOV,8IOU,8IF2,7XWA,7XBG,7XBF,7TN0,9IUU,8ZBQ,8XY9,8WYH,8WHZ,8WHU,8WHS,8SPI,8SPH,8JWH,8HRL,8HRK,7YEG,7VX9,7VIB,7UFK,7U0N,7L0N,7KNI,7KNH,7KNE,7KNB,7KMZ,7KMS,7KMB,7DX4,7DDP,7DDO,6VW1,3KBH,2AJF,8TOU,8TOT,8TOS,8TOR,8TOQ,7ZDQ,7YDI,7WHH,7P19,8S9G,8FXC,8FXB,8H5C,8H06,7YJ3,7YHW,7YA1,7YA0,7Y9Z,7XCP,7XCI,7XCH,7XB1,7XB0,7XAZ,7WBQ,7WBP,7WBL,7PKI,7LO4,7DRV,6LZG,8XYE

> <UniProt (SwissProt) Recommended Name of Target Chain>
Angiotensin-converting enzyme 2

> <UniProt (SwissProt) Entry Name of Target Chain>
ACE2_HUMAN

> <UniProt (SwissProt) Primary ID of Target Chain>
Q9BYF1

> <UniProt (SwissProt) Secondary ID(s) of Target Chain>
A0A7D6JAD5 C7ECU1 Q6UWP0 Q86WT0 Q9NRA7 Q9UFZ6

> <UniProt (SwissProt) Alternative ID(s) of Target Chain>


> <UniProt (TrEMBL) Submitted Name of Target Chain>


> <UniProt (TrEMBL) Entry Name of Target Chain>


> <UniProt (TrEMBL) Primary ID of Target Chain>


> <UniProt (TrEMBL) Secondary ID(s) of Target Chain>


> <UniProt (TrEMBL) Alternative ID(s) of Target Chain>


$$$$

JME 2024-04-29 Tue Aug 26 14:52:43 GMT-700 2025

 38 43  0  0  0  0  0  0  0  0999 V2000
    4.8497    7.1239    0.0000 C   0  0  0  0  0  0  0  0  0  0  0  0
    3.7171    6.3010    0.0000 C   0  0  0  0  0  0  0  0  0  0  0  0
    4.1497    4.9695    0.0000 N   0  0  0  0  0  0  0  0  0  0  0  0
    5.5497    4.9695    0.0000 C   0  0  0  0  0  0  0  0  0  0  0  0
    5.9824    6.3010    0.0000 C   0  0  0  0  0  0  0  0  0  0  0  0
    6.0622    7.8239    0.0000 C   0  0  0  0  0  0  0  0  0  0  0  0
    6.0622    9.2239    0.0000 N   0  0  0  0  0  0  0  0  0  0  0  0
    4.8497    9.9239    0.0000 C   0  0  0  0  0  0  0  0  0  0  0  0
    3.6373    9.2239    0.0000 C   0  0  0  0  0  0  0  0  0  0  0  0
    3.6373    7.8239    0.0000 C   0  0  0  0  0  0  0  0  0  0  0  0
    2.4249    9.9239    0.0000 C   0  0  0  0  0  0  0  0  0  0  0  0
    1.2124    9.2239    0.0000 C   0  0  0  0  0  0  0  0  0  0  0  0
    1.2124    7.8239    0.0000 C   0  0  0  0  0  0  0  0  0  0  0  0
    2.4249    7.1239    0.0000 C   0  0  0  0  0  0  0  0  0  0  0  0
    4.8497   11.3239    0.0000 O   0  0  0  0  0  0  0  0  0  0  0  0
    7.2746    9.9239    0.0000 C   0  0  0  0  0  0  0  0  0  0  0  0
    8.4870    9.2239    0.0000 C   0  0  0  0  0  0  0  0  0  0  0  0
    8.6334    7.8316    0.0000 O   0  0  0  0  0  0  0  0  0  0  0  0
   10.0028    7.5405    0.0000 N   0  0  0  0  0  0  0  0  0  0  0  0
   10.7028    8.7529    0.0000 C   0  0  0  0  0  0  0  0  0  0  0  0
    9.7660    9.7933    0.0000 C   0  0  0  0  0  0  0  0  0  0  0  0
    0.0000    7.1239    0.0000 Cl  0  0  0  0  0  0  0  0  0  0  0  0
   12.0951    8.8993    0.0000 C   0  0  0  0  0  0  0  0  0  0  0  0
    3.3268    3.8369    0.0000 C   0  0  0  0  0  0  0  0  0  0  0  0
    1.9345    3.9832    0.0000 C   0  0  0  0  0  0  0  0  0  0  0  0
    1.1116    2.8506    0.0000 N   0  0  0  0  0  0  0  0  0  0  0  0
    1.6810    1.5716    0.0000 C   0  0  0  0  0  0  0  0  0  0  0  0
    3.0734    1.4253    0.0000 C   0  0  0  0  0  0  0  0  0  0  0  0
    3.8963    2.5579    0.0000 C   0  0  0  0  0  0  0  0  0  0  0  0
    3.6428    0.1463    0.0000 C   0  0  0  0  0  0  0  0  0  0  0  0
    5.0351    0.0000    0.0000 C   0  0  0  0  0  0  0  0  0  0  0  0
    5.8580    1.1326    0.0000 C   0  0  0  0  0  0  0  0  0  0  0  0
    5.2886    2.4116    0.0000 C   0  0  0  0  0  0  0  0  0  0  0  0
    2.3205    6.2039    0.0000 O   0  0  0  0  0  0  0  0  0  0  0  0
    7.3138    6.7336    0.0000 C   0  0  0  0  0  0  0  0  0  0  0  0
    8.3542    5.7968    0.0000 N   0  0  0  0  0  0  0  0  0  0  0  0
    8.0632    4.4274    0.0000 C   0  0  0  0  0  0  0  0  0  0  0  0
    9.1036    3.4906    0.0000 C   0  0  0  0  0  0  0  0  0  0  0  0
  2  3  1  0  0  0  0
  3  4  1  0  0  0  0
  4  5  1  0  0  0  0
  1  5  1  0  0  0  0
  1  2  1  1  0  0  0
  6  7  1  0  0  0  0
  7  8  1  0  0  0  0
  8  9  1  0  0  0  0
  9 10  1  0  0  0  0
 11 12  1  0  0  0  0
 12 13  2  0  0  0  0
 13 14  1  0  0  0  0
 10 14  2  0  0  0  0
  9 11  2  0  0  0  0
  8 15  2  0  0  0  0
  7 16  1  0  0  0  0
 16 17  1  0  0  0  0
 18 19  1  0  0  0  0
 19 20  2  0  0  0  0
 20 21  1  0  0  0  0
 17 21  2  0  0  0  0
 17 18  1  0  0  0  0
  1 10  1  0  0  0  0
 13 22  1  0  0  0  0
 20 23  1  0  0  0  0
  3 24  1  0  0  0  0
 25 26  1  0  0  0  0
 26 27  2  0  0  0  0
 27 28  1  0  0  0  0
 28 29  2  0  0  0  0
 24 29  1  0  0  0  0
 24 25  2  0  0  0  0
 30 31  2  0  0  0  0
 31 32  1  0  0  0  0
 32 33  2  0  0  0  0
 29 33  1  0  0  0  0
 28 30  1  0  0  0  0
  2 34  2  0  0  0  0
  5 35  1  1  0  0  0
 35 36  1  0  0  0  0
 36 37  1  0  0  0  0
 37 38  1  0  0  0  0
  1  6  1  0  0  0  0
M  END
> <From>
www.bindingDB.org

> <BindingDB Reactant_set_id>
1515171

> <Ligand InChI>


> <Ligand InChI Key>


> <BindingDB MonomerID>
736194

> <BindingDB Ligand Name>
(4S,4'S)-6-chloro-4,-[(ethylamino)methyl]-1,-(4-isoquinolyl)-2-[(3-methylisoxazol-5-yl)methyl]spiro[3H-isoquinoUne-4,3'-pyrrolidine]-1,2,-dione::WO2025125695, Example 2

> <Target Name>
Angiotensin-converting enzyme 2

> <Target Source Organism According to Curator or DataSource>
Homo sapiens

> <Ki (nM)>


> <IC50 (nM)>


> <Kd (nM)>


> <EC50 (nM)>
 15

> <kon (M-1-s-1)>


> <koff (s-1)>


> <pH>


> <Temp C>


> <Curation/DataSource>
WIPO

> <Article DOI>


> <BindingDB Entry DOI>
10.7270/Q2805754

> <PMID>


> <PubChem AID>


> <Patent Number>
WO2025125695

> <Authors>
GRIFFEN, EJ; COUSINS, DL; STACEY-JEPSON, JE; LEFKER, BA; ROBINSON, RP

> <Date of publication>
4/23/2025

> <Date in BindingDB>
8/28/2025

> <Institution>
Medchemica

> <Link to Ligand in BindingDB>
http://www.bindingdb.org/bind/chemsearch/marvin/MolStructure.jsp?monomerid=736194

> <Link to Ligand-Target Pair in BindingDB>
http://www.bindingdb.org/rwd/jsp/dbsearch/PrimarySearch_ki.jsp?energyterm=kJ/mole&tag=pol&polymerid=2160&target=Angiotensin-converting+enzyme+2&column=ki&startPg=0&Increment=50&submit=Search

> <Link to Ligand-Target Pair in BindingDB>
http://www.bindingdb.org/rwd/jsp/dbsearch/PrimarySearch_ki.jsp?energyterm=kJ/mole&tag=r21&monomerid=736194&enzyme=Angiotensin-converting+enzyme+2&column=ki&startPg=0&Increment=50&submit=Search

> <Ligand HET ID in PDB>


> <PDB ID(s) for Ligand-Target Complex>


> <PubChem CID of Ligand>
176394987

> <PubChem SID of Ligand>
518296817

> <ChEBI ID of Ligand>


> <ChEMBL ID of Ligand>


> <DrugBank ID of Ligand>


> <IUPHAR_GRAC ID of Ligand>


> <KEGG ID of Ligand>


> <ZINC ID of Ligand>


> <Number of Protein Chains in Target (bigger than 1 implies a multichain complex)>
1

> <BindingDB Target Chain Sequence>
MSSSSWLLLSLVAVTAAQSTIEEQAKTFLDKFNHEAEDLFYQSSLASWNYNTNITEENVQNMNNAGDKWSAFLKEQSTLAQMYPLQEIQNLTVKLQLQALQQNGSSVLSEDKSKRLNTILNTMSTIYSTGKVCNPDNPQECLLLEPGLNEIMANSLDYNERLWAWESWRSEVGKQLRPLYEEYVVLKNEMARANHYEDYGDYWRGDYEVNGVDGYDYSRGQLIEDVEHTFEEIKPLYEHLHAYVRAKLMNAYPSYISPIGCLPAHLLGDMWGRFWTNLYSLTVPFGQKPNIDVTDAMVDQAWDAQRIFKEAEKFFVSVGLPNMTQGFWENSMLTDPGNVQKAVCHPTAWDLGKGDFRILMCTKVTMDDFLTAHHEMGHIQYDMAYAAQPFLLRNGANEGFHEAVGEIMSLSAATPKHLKSIGLLSPDFQEDNETEINFLLKQALTIVGTLPFTYMLEKWRWMVFKGEIPKDQWMKKWWEMKREIVGVVEPVPHDETYCDPASLFHVSNDYSFIRYYTRTLYQFQFQEALCQAAKHEGPLHKCDISNSTEAGQKLFNMLRLGKSEPWTLALENVVGAKNMNVRPLLNYFEPLFTWLKDQNKNSFVGWSTDWSPYADQSIKVRISLKSALGDKAYEWNDNEMYLFRSSVAYAMRQYFLKVKNQMILFGEEDVRVANLKPRISFNFFVTAPKNVSDIIPRTEVEKAIRMSRSRINDAFRLNDNSLEFLGIQPTLGPPNQPPVSIWLIVFGVVMGVIVVGIVILIFTGIRDRKKKNKARSGENPYASIDISKGENNPGFQNTDDVQTSF

> <PDB ID(s) of Target Chain>
8WBZ,8WBY,8YZJ,8XSJ,8XSF,8WTD,8WSR,8WRH,8WE4,8WE1,8WE0,8WDZ,8WDY,8WDS,8WDR,8DF5,7XO9,7XO8,7XO7,7WPC,7WPB,7WPA,7L7F,7DQA,9KY1,9KY0,9KXZ,9KXY,9KXW,9KXV,9KXU,9KXT,8I92,8I91,7Y76,7Y75,7XID,7V61,7DX9,7DX8,7DX7,7DX6,7DX5,7DWX,6M1D,6M18,6M17,8I93,8YZE,8YZD,8YZC,8YZB,7FEM,9FMM,8XAL,7V8B,7V8A,7V89,7V88,7V87,7V86,7V85,7V84,7V83,7V82,7V81,7V80,7V7Z,7EDJ,8WGW,1R4L,1R42,8E7M,8WGV,7KJ4,7KJ3,7KJ2,7XBH,9IU1,8XVM,8XV1,8XV0,8XUZ,8XUY,8XLN,8XLM,8JYP,8JYO,8JYN,8IOV,8IOU,8IF2,7XWA,7XBG,7XBF,7TN0,9IUU,8ZBQ,8XY9,8WYH,8WHZ,8WHU,8WHS,8SPI,8SPH,8JWH,8HRL,8HRK,7YEG,7VX9,7VIB,7UFK,7U0N,7L0N,7KNI,7KNH,7KNE,7KNB,7KMZ,7KMS,7KMB,7DX4,7DDP,7DDO,6VW1,3KBH,2AJF,8TOU,8TOT,8TOS,8TOR,8TOQ,7ZDQ,7YDI,7WHH,7P19,8S9G,8FXC,8FXB,8H5C,8H06,7YJ3,7YHW,7YA1,7YA0,7Y9Z,7XCP,7XCI,7XCH,7XB1,7XB0,7XAZ,7WBQ,7WBP,7WBL,7PKI,7LO4,7DRV,6LZG,8XYE

> <UniProt (SwissProt) Recommended Name of Target Chain>
Angiotensin-converting enzyme 2

> <UniProt (SwissProt) Entry Name of Target Chain>
ACE2_HUMAN

> <UniProt (SwissProt) Primary ID of Target Chain>
Q9BYF1

> <UniProt (SwissProt) Secondary ID(s) of Target Chain>
A0A7D6JAD5 C7ECU1 Q6UWP0 Q86WT0 Q9NRA7 Q9UFZ6

> <UniProt (SwissProt) Alternative ID(s) of Target Chain>


> <UniProt (TrEMBL) Submitted Name of Target Chain>


> <UniProt (TrEMBL) Entry Name of Target Chain>


> <UniProt (TrEMBL) Primary ID of Target Chain>


> <UniProt (TrEMBL) Secondary ID(s) of Target Chain>


> <UniProt (TrEMBL) Alternative ID(s) of Target Chain>


$$$$

JME 2024-04-29 Tue Aug 26 14:57:39 GMT-700 2025

 38 43  0  0  0  0  0  0  0  0999 V2000
    4.8497    7.1239    0.0000 C   0  0  0  0  0  0  0  0  0  0  0  0
    3.7171    6.3010    0.0000 C   0  0  0  0  0  0  0  0  0  0  0  0
    4.1497    4.9695    0.0000 N   0  0  0  0  0  0  0  0  0  0  0  0
    5.5497    4.9695    0.0000 C   0  0  0  0  0  0  0  0  0  0  0  0
    5.9824    6.3010    0.0000 C   0  0  0  0  0  0  0  0  0  0  0  0
    6.0622    7.8239    0.0000 C   0  0  0  0  0  0  0  0  0  0  0  0
    6.0622    9.2239    0.0000 N   0  0  0  0  0  0  0  0  0  0  0  0
    4.8497    9.9239    0.0000 C   0  0  0  0  0  0  0  0  0  0  0  0
    3.6373    9.2239    0.0000 C   0  0  0  0  0  0  0  0  0  0  0  0
    3.6373    7.8239    0.0000 C   0  0  0  0  0  0  0  0  0  0  0  0
    2.4249    9.9239    0.0000 C   0  0  0  0  0  0  0  0  0  0  0  0
    1.2124    9.2239    0.0000 C   0  0  0  0  0  0  0  0  0  0  0  0
    1.2124    7.8239    0.0000 C   0  0  0  0  0  0  0  0  0  0  0  0
    2.4249    7.1239    0.0000 C   0  0  0  0  0  0  0  0  0  0  0  0
    4.8497   11.3239    0.0000 O   0  0  0  0  0  0  0  0  0  0  0  0
    7.2746    9.9239    0.0000 C   0  0  0  0  0  0  0  0  0  0  0  0
    0.0000    7.1239    0.0000 Cl  0  0  0  0  0  0  0  0  0  0  0  0
    3.3268    3.8369    0.0000 C   0  0  0  0  0  0  0  0  0  0  0  0
    1.9345    3.9832    0.0000 C   0  0  0  0  0  0  0  0  0  0  0  0
    1.1116    2.8506    0.0000 N   0  0  0  0  0  0  0  0  0  0  0  0
    1.6810    1.5716    0.0000 C   0  0  0  0  0  0  0  0  0  0  0  0
    3.0734    1.4253    0.0000 C   0  0  0  0  0  0  0  0  0  0  0  0
    3.8963    2.5579    0.0000 C   0  0  0  0  0  0  0  0  0  0  0  0
    3.6428    0.1463    0.0000 C   0  0  0  0  0  0  0  0  0  0  0  0
    5.0351    0.0000    0.0000 C   0  0  0  0  0  0  0  0  0  0  0  0
    5.8580    1.1326    0.0000 C   0  0  0  0  0  0  0  0  0  0  0  0
    5.2886    2.4116    0.0000 C   0  0  0  0  0  0  0  0  0  0  0  0
    2.3205    6.2039    0.0000 O   0  0  0  0  0  0  0  0  0  0  0  0
    7.3138    6.7336    0.0000 C   0  0  0  0  0  0  0  0  0  0  0  0
    8.3542    5.7968    0.0000 N   0  0  0  0  0  0  0  0  0  0  0  0
    8.0632    4.4274    0.0000 C   0  0  0  0  0  0  0  0  0  0  0  0
    9.1036    3.4906    0.0000 C   0  0  0  0  0  0  0  0  0  0  0  0
    8.4871    9.2239    0.0000 C   0  0  0  0  0  0  0  0  0  0  0  0
    8.4871    7.8239    0.0000 C   0  0  0  0  0  0  0  0  0  0  0  0
    9.6995    7.1239    0.0000 C   0  0  0  0  0  0  0  0  0  0  0  0
   10.9119    7.8240    0.0000 O   0  0  0  0  0  0  0  0  0  0  0  0
   10.9119    9.2240    0.0000 C   0  0  0  0  0  0  0  0  0  0  0  0
    9.6995    9.9239    0.0000 C   0  0  0  0  0  0  0  0  0  0  0  0
  2  3  1  0  0  0  0
  3  4  1  0  0  0  0
  4  5  1  0  0  0  0
  1  5  1  0  0  0  0
  1  2  1  1  0  0  0
  6  7  1  0  0  0  0
  7  8  1  0  0  0  0
  8  9  1  0  0  0  0
  9 10  1  0  0  0  0
 11 12  1  0  0  0  0
 12 13  2  0  0  0  0
 13 14  1  0  0  0  0
 10 14  2  0  0  0  0
  9 11  2  0  0  0  0
  8 15  2  0  0  0  0
  7 16  1  0  0  0  0
  1 10  1  0  0  0  0
 13 17  1  0  0  0  0
  3 18  1  0  0  0  0
 19 20  1  0  0  0  0
 20 21  2  0  0  0  0
 21 22  1  0  0  0  0
 22 23  2  0  0  0  0
 18 23  1  0  0  0  0
 18 19  2  0  0  0  0
 24 25  2  0  0  0  0
 25 26  1  0  0  0  0
 26 27  2  0  0  0  0
 23 27  1  0  0  0  0
 22 24  1  0  0  0  0
  2 28  2  0  0  0  0
  5 29  1  1  0  0  0
 29 30  1  0  0  0  0
 30 31  1  0  0  0  0
 31 32  1  0  0  0  0
 16 33  1  0  0  0  0
 34 35  1  0  0  0  0
 35 36  1  0  0  0  0
 36 37  1  0  0  0  0
 37 38  1  0  0  0  0
 33 38  1  0  0  0  0
 33 34  1  0  0  0  0
  1  6  1  0  0  0  0
M  END
> <From>
www.bindingDB.org

> <BindingDB Reactant_set_id>
1515172

> <Ligand InChI>


> <Ligand InChI Key>


> <BindingDB MonomerID>
736195

> <BindingDB Ligand Name>
(4S,4'S)-6-chloro-4,-[(ethylamino)methyl]-1,-(4-isoquinolyl)-2-[(tetrahydropyran-4-ylmethyl)]spiro[3H-isoquinoUne-4,3'-pyrrolidine]-1,2,-dione::WO2025125695, Example 3

> <Target Name>
Angiotensin-converting enzyme 2

> <Target Source Organism According to Curator or DataSource>
Homo sapiens

> <Ki (nM)>


> <IC50 (nM)>


> <Kd (nM)>


> <EC50 (nM)>
 18

> <kon (M-1-s-1)>


> <koff (s-1)>


> <pH>


> <Temp C>


> <Curation/DataSource>
WIPO

> <Article DOI>


> <BindingDB Entry DOI>
10.7270/Q2805754

> <PMID>


> <PubChem AID>


> <Patent Number>
WO2025125695

> <Authors>
GRIFFEN, EJ; COUSINS, DL; STACEY-JEPSON, JE; LEFKER, BA; ROBINSON, RP

> <Date of publication>
4/23/2025

> <Date in BindingDB>
8/28/2025

> <Institution>
Medchemica

> <Link to Ligand in BindingDB>
http://www.bindingdb.org/bind/chemsearch/marvin/MolStructure.jsp?monomerid=736195

> <Link to Ligand-Target Pair in BindingDB>
http://www.bindingdb.org/rwd/jsp/dbsearch/PrimarySearch_ki.jsp?energyterm=kJ/mole&tag=pol&polymerid=2160&target=Angiotensin-converting+enzyme+2&column=ki&startPg=0&Increment=50&submit=Search

> <Link to Ligand-Target Pair in BindingDB>
http://www.bindingdb.org/rwd/jsp/dbsearch/PrimarySearch_ki.jsp?energyterm=kJ/mole&tag=r21&monomerid=736195&enzyme=Angiotensin-converting+enzyme+2&column=ki&startPg=0&Increment=50&submit=Search

> <Ligand HET ID in PDB>


> <PDB ID(s) for Ligand-Target Complex>


> <PubChem CID of Ligand>
176394934

> <PubChem SID of Ligand>
518296818

> <ChEBI ID of Ligand>


> <ChEMBL ID of Ligand>


> <DrugBank ID of Ligand>


> <IUPHAR_GRAC ID of Ligand>


> <KEGG ID of Ligand>


> <ZINC ID of Ligand>


> <Number of Protein Chains in Target (bigger than 1 implies a multichain complex)>
1

> <BindingDB Target Chain Sequence>
MSSSSWLLLSLVAVTAAQSTIEEQAKTFLDKFNHEAEDLFYQSSLASWNYNTNITEENVQNMNNAGDKWSAFLKEQSTLAQMYPLQEIQNLTVKLQLQALQQNGSSVLSEDKSKRLNTILNTMSTIYSTGKVCNPDNPQECLLLEPGLNEIMANSLDYNERLWAWESWRSEVGKQLRPLYEEYVVLKNEMARANHYEDYGDYWRGDYEVNGVDGYDYSRGQLIEDVEHTFEEIKPLYEHLHAYVRAKLMNAYPSYISPIGCLPAHLLGDMWGRFWTNLYSLTVPFGQKPNIDVTDAMVDQAWDAQRIFKEAEKFFVSVGLPNMTQGFWENSMLTDPGNVQKAVCHPTAWDLGKGDFRILMCTKVTMDDFLTAHHEMGHIQYDMAYAAQPFLLRNGANEGFHEAVGEIMSLSAATPKHLKSIGLLSPDFQEDNETEINFLLKQALTIVGTLPFTYMLEKWRWMVFKGEIPKDQWMKKWWEMKREIVGVVEPVPHDETYCDPASLFHVSNDYSFIRYYTRTLYQFQFQEALCQAAKHEGPLHKCDISNSTEAGQKLFNMLRLGKSEPWTLALENVVGAKNMNVRPLLNYFEPLFTWLKDQNKNSFVGWSTDWSPYADQSIKVRISLKSALGDKAYEWNDNEMYLFRSSVAYAMRQYFLKVKNQMILFGEEDVRVANLKPRISFNFFVTAPKNVSDIIPRTEVEKAIRMSRSRINDAFRLNDNSLEFLGIQPTLGPPNQPPVSIWLIVFGVVMGVIVVGIVILIFTGIRDRKKKNKARSGENPYASIDISKGENNPGFQNTDDVQTSF

> <PDB ID(s) of Target Chain>
8WBZ,8WBY,8YZJ,8XSJ,8XSF,8WTD,8WSR,8WRH,8WE4,8WE1,8WE0,8WDZ,8WDY,8WDS,8WDR,8DF5,7XO9,7XO8,7XO7,7WPC,7WPB,7WPA,7L7F,7DQA,9KY1,9KY0,9KXZ,9KXY,9KXW,9KXV,9KXU,9KXT,8I92,8I91,7Y76,7Y75,7XID,7V61,7DX9,7DX8,7DX7,7DX6,7DX5,7DWX,6M1D,6M18,6M17,8I93,8YZE,8YZD,8YZC,8YZB,7FEM,9FMM,8XAL,7V8B,7V8A,7V89,7V88,7V87,7V86,7V85,7V84,7V83,7V82,7V81,7V80,7V7Z,7EDJ,8WGW,1R4L,1R42,8E7M,8WGV,7KJ4,7KJ3,7KJ2,7XBH,9IU1,8XVM,8XV1,8XV0,8XUZ,8XUY,8XLN,8XLM,8JYP,8JYO,8JYN,8IOV,8IOU,8IF2,7XWA,7XBG,7XBF,7TN0,9IUU,8ZBQ,8XY9,8WYH,8WHZ,8WHU,8WHS,8SPI,8SPH,8JWH,8HRL,8HRK,7YEG,7VX9,7VIB,7UFK,7U0N,7L0N,7KNI,7KNH,7KNE,7KNB,7KMZ,7KMS,7KMB,7DX4,7DDP,7DDO,6VW1,3KBH,2AJF,8TOU,8TOT,8TOS,8TOR,8TOQ,7ZDQ,7YDI,7WHH,7P19,8S9G,8FXC,8FXB,8H5C,8H06,7YJ3,7YHW,7YA1,7YA0,7Y9Z,7XCP,7XCI,7XCH,7XB1,7XB0,7XAZ,7WBQ,7WBP,7WBL,7PKI,7LO4,7DRV,6LZG,8XYE

> <UniProt (SwissProt) Recommended Name of Target Chain>
Angiotensin-converting enzyme 2

> <UniProt (SwissProt) Entry Name of Target Chain>
ACE2_HUMAN

> <UniProt (SwissProt) Primary ID of Target Chain>
Q9BYF1

> <UniProt (SwissProt) Secondary ID(s) of Target Chain>
A0A7D6JAD5 C7ECU1 Q6UWP0 Q86WT0 Q9NRA7 Q9UFZ6

> <UniProt (SwissProt) Alternative ID(s) of Target Chain>


> <UniProt (TrEMBL) Submitted Name of Target Chain>


> <UniProt (TrEMBL) Entry Name of Target Chain>


> <UniProt (TrEMBL) Primary ID of Target Chain>


> <UniProt (TrEMBL) Secondary ID(s) of Target Chain>


> <UniProt (TrEMBL) Alternative ID(s) of Target Chain>


$$$$

JME 2024-04-29 Tue Aug 26 14:55:24 GMT-700 2025

 39 44  0  0  0  0  0  0  0  0999 V2000
    4.8497    7.1239    0.0000 C   0  0  0  0  0  0  0  0  0  0  0  0
    3.7171    6.3010    0.0000 C   0  0  0  0  0  0  0  0  0  0  0  0
    4.1497    4.9695    0.0000 N   0  0  0  0  0  0  0  0  0  0  0  0
    5.5497    4.9695    0.0000 C   0  0  0  0  0  0  0  0  0  0  0  0
    5.9824    6.3010    0.0000 C   0  0  0  0  0  0  0  0  0  0  0  0
    6.0622    7.8239    0.0000 C   0  0  0  0  0  0  0  0  0  0  0  0
    6.0622    9.2239    0.0000 N   0  0  0  0  0  0  0  0  0  0  0  0
    4.8497    9.9239    0.0000 C   0  0  0  0  0  0  0  0  0  0  0  0
    3.6373    9.2239    0.0000 C   0  0  0  0  0  0  0  0  0  0  0  0
    3.6373    7.8239    0.0000 C   0  0  0  0  0  0  0  0  0  0  0  0
    2.4249    9.9239    0.0000 C   0  0  0  0  0  0  0  0  0  0  0  0
    1.2124    9.2239    0.0000 C   0  0  0  0  0  0  0  0  0  0  0  0
    1.2124    7.8239    0.0000 C   0  0  0  0  0  0  0  0  0  0  0  0
    2.4249    7.1239    0.0000 C   0  0  0  0  0  0  0  0  0  0  0  0
    4.8497   11.3239    0.0000 O   0  0  0  0  0  0  0  0  0  0  0  0
    7.2746    9.9239    0.0000 C   0  0  0  0  0  0  0  0  0  0  0  0
    0.0000    7.1239    0.0000 Cl  0  0  0  0  0  0  0  0  0  0  0  0
    3.3268    3.8369    0.0000 C   0  0  0  0  0  0  0  0  0  0  0  0
    1.9345    3.9832    0.0000 C   0  0  0  0  0  0  0  0  0  0  0  0
    1.1116    2.8506    0.0000 N   0  0  0  0  0  0  0  0  0  0  0  0
    1.6810    1.5716    0.0000 C   0  0  0  0  0  0  0  0  0  0  0  0
    3.0734    1.4253    0.0000 C   0  0  0  0  0  0  0  0  0  0  0  0
    3.8963    2.5579    0.0000 C   0  0  0  0  0  0  0  0  0  0  0  0
    3.6428    0.1463    0.0000 C   0  0  0  0  0  0  0  0  0  0  0  0
    5.0351    0.0000    0.0000 C   0  0  0  0  0  0  0  0  0  0  0  0
    5.8580    1.1326    0.0000 C   0  0  0  0  0  0  0  0  0  0  0  0
    5.2886    2.4116    0.0000 C   0  0  0  0  0  0  0  0  0  0  0  0
    2.3205    6.2039    0.0000 O   0  0  0  0  0  0  0  0  0  0  0  0
    7.3138    6.7336    0.0000 C   0  0  0  0  0  0  0  0  0  0  0  0
    8.3542    5.7968    0.0000 N   0  0  0  0  0  0  0  0  0  0  0  0
    8.0632    4.4274    0.0000 C   0  0  0  0  0  0  0  0  0  0  0  0
    9.1036    3.4906    0.0000 C   0  0  0  0  0  0  0  0  0  0  0  0
    8.4871    9.2239    0.0000 C   0  0  0  0  0  0  0  0  0  0  0  0
    8.4871    7.8239    0.0000 C   0  0  0  0  0  0  0  0  0  0  0  0
    9.6995    7.1239    0.0000 C   0  0  0  0  0  0  0  0  0  0  0  0
   10.9119    7.8240    0.0000 N   0  0  0  0  0  0  0  0  0  0  0  0
   10.9119    9.2240    0.0000 C   0  0  0  0  0  0  0  0  0  0  0  0
    9.6995    9.9239    0.0000 N   0  0  0  0  0  0  0  0  0  0  0  0
    9.6995    5.7239    0.0000 C   0  0  0  0  0  0  0  0  0  0  0  0
  2  3  1  0  0  0  0
  3  4  1  0  0  0  0
  4  5  1  0  0  0  0
  1  5  1  0  0  0  0
  1  2  1  1  0  0  0
  6  7  1  0  0  0  0
  7  8  1  0  0  0  0
  8  9  1  0  0  0  0
  9 10  1  0  0  0  0
 11 12  1  0  0  0  0
 12 13  2  0  0  0  0
 13 14  1  0  0  0  0
 10 14  2  0  0  0  0
  9 11  2  0  0  0  0
  8 15  2  0  0  0  0
  7 16  1  0  0  0  0
  1 10  1  0  0  0  0
 13 17  1  0  0  0  0
  3 18  1  0  0  0  0
 19 20  1  0  0  0  0
 20 21  2  0  0  0  0
 21 22  1  0  0  0  0
 22 23  2  0  0  0  0
 18 23  1  0  0  0  0
 18 19  2  0  0  0  0
 24 25  2  0  0  0  0
 25 26  1  0  0  0  0
 26 27  2  0  0  0  0
 23 27  1  0  0  0  0
 22 24  1  0  0  0  0
  2 28  2  0  0  0  0
  5 29  1  1  0  0  0
 29 30  1  0  0  0  0
 30 31  1  0  0  0  0
 31 32  1  0  0  0  0
 16 33  1  0  0  0  0
 34 35  2  0  0  0  0
 35 36  1  0  0  0  0
 36 37  2  0  0  0  0
 37 38  1  0  0  0  0
 33 38  2  0  0  0  0
 33 34  1  0  0  0  0
  1  6  1  0  0  0  0
 35 39  1  0  0  0  0
M  END
> <From>
www.bindingDB.org

> <BindingDB Reactant_set_id>
1515173

> <Ligand InChI>


> <Ligand InChI Key>


> <BindingDB MonomerID>
736196

> <BindingDB Ligand Name>
(4S,4'S)-6-chloro-4,-[(ethylamino)methyl]-1,-(4-isoquinolyl)-2-[(6-methylpyrimidin-4-yl)methyl]spiro[3H-isoquinoUne-4,3'-pyrrolidine]-1,2,-dione::WO2025125695, Example 4

> <Target Name>
Angiotensin-converting enzyme 2

> <Target Source Organism According to Curator or DataSource>
Homo sapiens

> <Ki (nM)>


> <IC50 (nM)>


> <Kd (nM)>


> <EC50 (nM)>
 31

> <kon (M-1-s-1)>


> <koff (s-1)>


> <pH>


> <Temp C>


> <Curation/DataSource>
WIPO

> <Article DOI>


> <BindingDB Entry DOI>
10.7270/Q2805754

> <PMID>


> <PubChem AID>


> <Patent Number>
WO2025125695

> <Authors>
GRIFFEN, EJ; COUSINS, DL; STACEY-JEPSON, JE; LEFKER, BA; ROBINSON, RP

> <Date of publication>
4/23/2025

> <Date in BindingDB>
8/28/2025

> <Institution>
Medchemica

> <Link to Ligand in BindingDB>
http://www.bindingdb.org/bind/chemsearch/marvin/MolStructure.jsp?monomerid=736196

> <Link to Ligand-Target Pair in BindingDB>
http://www.bindingdb.org/rwd/jsp/dbsearch/PrimarySearch_ki.jsp?energyterm=kJ/mole&tag=pol&polymerid=2160&target=Angiotensin-converting+enzyme+2&column=ki&startPg=0&Increment=50&submit=Search

> <Link to Ligand-Target Pair in BindingDB>
http://www.bindingdb.org/rwd/jsp/dbsearch/PrimarySearch_ki.jsp?energyterm=kJ/mole&tag=r21&monomerid=736196&enzyme=Angiotensin-converting+enzyme+2&column=ki&startPg=0&Increment=50&submit=Search

> <Ligand HET ID in PDB>


> <PDB ID(s) for Ligand-Target Complex>


> <PubChem CID of Ligand>
176394957

> <PubChem SID of Ligand>
518296819

> <ChEBI ID of Ligand>


> <ChEMBL ID of Ligand>


> <DrugBank ID of Ligand>


> <IUPHAR_GRAC ID of Ligand>


> <KEGG ID of Ligand>


> <ZINC ID of Ligand>


> <Number of Protein Chains in Target (bigger than 1 implies a multichain complex)>
1

> <BindingDB Target Chain Sequence>
MSSSSWLLLSLVAVTAAQSTIEEQAKTFLDKFNHEAEDLFYQSSLASWNYNTNITEENVQNMNNAGDKWSAFLKEQSTLAQMYPLQEIQNLTVKLQLQALQQNGSSVLSEDKSKRLNTILNTMSTIYSTGKVCNPDNPQECLLLEPGLNEIMANSLDYNERLWAWESWRSEVGKQLRPLYEEYVVLKNEMARANHYEDYGDYWRGDYEVNGVDGYDYSRGQLIEDVEHTFEEIKPLYEHLHAYVRAKLMNAYPSYISPIGCLPAHLLGDMWGRFWTNLYSLTVPFGQKPNIDVTDAMVDQAWDAQRIFKEAEKFFVSVGLPNMTQGFWENSMLTDPGNVQKAVCHPTAWDLGKGDFRILMCTKVTMDDFLTAHHEMGHIQYDMAYAAQPFLLRNGANEGFHEAVGEIMSLSAATPKHLKSIGLLSPDFQEDNETEINFLLKQALTIVGTLPFTYMLEKWRWMVFKGEIPKDQWMKKWWEMKREIVGVVEPVPHDETYCDPASLFHVSNDYSFIRYYTRTLYQFQFQEALCQAAKHEGPLHKCDISNSTEAGQKLFNMLRLGKSEPWTLALENVVGAKNMNVRPLLNYFEPLFTWLKDQNKNSFVGWSTDWSPYADQSIKVRISLKSALGDKAYEWNDNEMYLFRSSVAYAMRQYFLKVKNQMILFGEEDVRVANLKPRISFNFFVTAPKNVSDIIPRTEVEKAIRMSRSRINDAFRLNDNSLEFLGIQPTLGPPNQPPVSIWLIVFGVVMGVIVVGIVILIFTGIRDRKKKNKARSGENPYASIDISKGENNPGFQNTDDVQTSF

> <PDB ID(s) of Target Chain>
8WBZ,8WBY,8YZJ,8XSJ,8XSF,8WTD,8WSR,8WRH,8WE4,8WE1,8WE0,8WDZ,8WDY,8WDS,8WDR,8DF5,7XO9,7XO8,7XO7,7WPC,7WPB,7WPA,7L7F,7DQA,9KY1,9KY0,9KXZ,9KXY,9KXW,9KXV,9KXU,9KXT,8I92,8I91,7Y76,7Y75,7XID,7V61,7DX9,7DX8,7DX7,7DX6,7DX5,7DWX,6M1D,6M18,6M17,8I93,8YZE,8YZD,8YZC,8YZB,7FEM,9FMM,8XAL,7V8B,7V8A,7V89,7V88,7V87,7V86,7V85,7V84,7V83,7V82,7V81,7V80,7V7Z,7EDJ,8WGW,1R4L,1R42,8E7M,8WGV,7KJ4,7KJ3,7KJ2,7XBH,9IU1,8XVM,8XV1,8XV0,8XUZ,8XUY,8XLN,8XLM,8JYP,8JYO,8JYN,8IOV,8IOU,8IF2,7XWA,7XBG,7XBF,7TN0,9IUU,8ZBQ,8XY9,8WYH,8WHZ,8WHU,8WHS,8SPI,8SPH,8JWH,8HRL,8HRK,7YEG,7VX9,7VIB,7UFK,7U0N,7L0N,7KNI,7KNH,7KNE,7KNB,7KMZ,7KMS,7KMB,7DX4,7DDP,7DDO,6VW1,3KBH,2AJF,8TOU,8TOT,8TOS,8TOR,8TOQ,7ZDQ,7YDI,7WHH,7P19,8S9G,8FXC,8FXB,8H5C,8H06,7YJ3,7YHW,7YA1,7YA0,7Y9Z,7XCP,7XCI,7XCH,7XB1,7XB0,7XAZ,7WBQ,7WBP,7WBL,7PKI,7LO4,7DRV,6LZG,8XYE

> <UniProt (SwissProt) Recommended Name of Target Chain>
Angiotensin-converting enzyme 2

> <UniProt (SwissProt) Entry Name of Target Chain>
ACE2_HUMAN

> <UniProt (SwissProt) Primary ID of Target Chain>
Q9BYF1

> <UniProt (SwissProt) Secondary ID(s) of Target Chain>
A0A7D6JAD5 C7ECU1 Q6UWP0 Q86WT0 Q9NRA7 Q9UFZ6

> <UniProt (SwissProt) Alternative ID(s) of Target Chain>


> <UniProt (TrEMBL) Submitted Name of Target Chain>


> <UniProt (TrEMBL) Entry Name of Target Chain>


> <UniProt (TrEMBL) Primary ID of Target Chain>


> <UniProt (TrEMBL) Secondary ID(s) of Target Chain>


> <UniProt (TrEMBL) Alternative ID(s) of Target Chain>


$$$$

JME 2024-04-29 Tue Aug 26 15:05:40 GMT-700 2025

 39 44  0  0  0  0  0  0  0  0999 V2000
    4.8497    7.1239    0.0000 C   0  0  0  0  0  0  0  0  0  0  0  0
    3.7171    6.3010    0.0000 C   0  0  0  0  0  0  0  0  0  0  0  0
    4.1497    4.9695    0.0000 N   0  0  0  0  0  0  0  0  0  0  0  0
    5.5497    4.9695    0.0000 C   0  0  0  0  0  0  0  0  0  0  0  0
    5.9824    6.3010    0.0000 C   0  0  0  0  0  0  0  0  0  0  0  0
    6.0622    7.8239    0.0000 C   0  0  0  0  0  0  0  0  0  0  0  0
    6.0622    9.2239    0.0000 N   0  0  0  0  0  0  0  0  0  0  0  0
    4.8497    9.9239    0.0000 C   0  0  0  0  0  0  0  0  0  0  0  0
    3.6373    9.2239    0.0000 C   0  0  0  0  0  0  0  0  0  0  0  0
    3.6373    7.8239    0.0000 C   0  0  0  0  0  0  0  0  0  0  0  0
    2.4249    9.9239    0.0000 C   0  0  0  0  0  0  0  0  0  0  0  0
    1.2124    9.2239    0.0000 C   0  0  0  0  0  0  0  0  0  0  0  0
    1.2124    7.8239    0.0000 C   0  0  0  0  0  0  0  0  0  0  0  0
    2.4249    7.1239    0.0000 C   0  0  0  0  0  0  0  0  0  0  0  0
    4.8497   11.3239    0.0000 O   0  0  0  0  0  0  0  0  0  0  0  0
    7.2746    9.9239    0.0000 C   0  0  0  0  0  0  0  0  0  0  0  0
    0.0000    7.1239    0.0000 Cl  0  0  0  0  0  0  0  0  0  0  0  0
    3.3268    3.8369    0.0000 C   0  0  0  0  0  0  0  0  0  0  0  0
    1.9345    3.9832    0.0000 C   0  0  0  0  0  0  0  0  0  0  0  0
    1.1116    2.8506    0.0000 N   0  0  0  0  0  0  0  0  0  0  0  0
    1.6810    1.5716    0.0000 C   0  0  0  0  0  0  0  0  0  0  0  0
    3.0734    1.4253    0.0000 C   0  0  0  0  0  0  0  0  0  0  0  0
    3.8963    2.5579    0.0000 C   0  0  0  0  0  0  0  0  0  0  0  0
    3.6428    0.1463    0.0000 C   0  0  0  0  0  0  0  0  0  0  0  0
    5.0351    0.0000    0.0000 C   0  0  0  0  0  0  0  0  0  0  0  0
    5.8580    1.1326    0.0000 C   0  0  0  0  0  0  0  0  0  0  0  0
    5.2886    2.4116    0.0000 C   0  0  0  0  0  0  0  0  0  0  0  0
    2.3205    6.2039    0.0000 O   0  0  0  0  0  0  0  0  0  0  0  0
    7.3138    6.7336    0.0000 C   0  0  0  0  0  0  0  0  0  0  0  0
    8.3542    5.7968    0.0000 N   0  0  0  0  0  0  0  0  0  0  0  0
    8.0632    4.4274    0.0000 C   0  0  0  0  0  0  0  0  0  0  0  0
    9.1036    3.4906    0.0000 C   0  0  0  0  0  0  0  0  0  0  0  0
    8.4871    9.2239    0.0000 C   0  0  0  0  0  0  0  0  0  0  0  0
    8.4871    7.8239    0.0000 C   0  0  0  0  0  0  0  0  0  0  0  0
    9.6995    7.1239    0.0000 C   0  0  0  0  0  0  0  0  0  0  0  0
   10.9119    7.8240    0.0000 O   0  0  0  0  0  0  0  0  0  0  0  0
   10.9119    9.2240    0.0000 C   0  0  0  0  0  0  0  0  0  0  0  0
    9.6995    9.9239    0.0000 C   0  0  0  0  0  0  0  0  0  0  0  0
    6.7317    3.9948    0.0000 C   0  0  0  0  0  0  0  0  0  0  0  0
  2  3  1  0  0  0  0
  3  4  1  0  0  0  0
  4  5  1  0  0  0  0
  1  5  1  0  0  0  0
  1  2  1  1  0  0  0
  6  7  1  0  0  0  0
  7  8  1  0  0  0  0
  8  9  1  0  0  0  0
  9 10  1  0  0  0  0
 11 12  1  0  0  0  0
 12 13  2  0  0  0  0
 13 14  1  0  0  0  0
 10 14  2  0  0  0  0
  9 11  2  0  0  0  0
  8 15  2  0  0  0  0
  7 16  1  0  0  0  0
  1 10  1  0  0  0  0
 13 17  1  0  0  0  0
  3 18  1  0  0  0  0
 19 20  1  0  0  0  0
 20 21  2  0  0  0  0
 21 22  1  0  0  0  0
 22 23  2  0  0  0  0
 18 23  1  0  0  0  0
 18 19  2  0  0  0  0
 24 25  2  0  0  0  0
 25 26  1  0  0  0  0
 26 27  2  0  0  0  0
 23 27  1  0  0  0  0
 22 24  1  0  0  0  0
  2 28  2  0  0  0  0
  5 29  1  1  0  0  0
 29 30  1  0  0  0  0
 30 31  1  0  0  0  0
 31 32  1  0  0  0  0
 16 33  1  0  0  0  0
 34 35  1  0  0  0  0
 35 36  1  0  0  0  0
 36 37  1  0  0  0  0
 37 38  1  0  0  0  0
 33 38  1  0  0  0  0
 33 34  1  0  0  0  0
  1  6  1  0  0  0  0
 31 39  1  0  0  0  0
M  END
> <From>
www.bindingDB.org

> <BindingDB Reactant_set_id>
1515174

> <Ligand InChI>


> <Ligand InChI Key>


> <BindingDB MonomerID>
736197

> <BindingDB Ligand Name>
(4S,4'S)-6-chloro-4,-[(ethylamino)methyl]-1,-(4-isoquinolyl)-2-[(6-methylpyrimidin-4-yl)methyl]spiro[3H-isoquinoUne-4,3'-pyrrolidine]-1,2,-dione::WO2025125695, Example 5

> <Target Name>
Angiotensin-converting enzyme 2

> <Target Source Organism According to Curator or DataSource>
Homo sapiens

> <Ki (nM)>


> <IC50 (nM)>


> <Kd (nM)>


> <EC50 (nM)>
 76

> <kon (M-1-s-1)>


> <koff (s-1)>


> <pH>


> <Temp C>


> <Curation/DataSource>
WIPO

> <Article DOI>


> <BindingDB Entry DOI>
10.7270/Q2805754

> <PMID>


> <PubChem AID>


> <Patent Number>
WO2025125695

> <Authors>
GRIFFEN, EJ; COUSINS, DL; STACEY-JEPSON, JE; LEFKER, BA; ROBINSON, RP

> <Date of publication>
4/23/2025

> <Date in BindingDB>
8/28/2025

> <Institution>
Medchemica

> <Link to Ligand in BindingDB>
http://www.bindingdb.org/bind/chemsearch/marvin/MolStructure.jsp?monomerid=736197

> <Link to Ligand-Target Pair in BindingDB>
http://www.bindingdb.org/rwd/jsp/dbsearch/PrimarySearch_ki.jsp?energyterm=kJ/mole&tag=pol&polymerid=2160&target=Angiotensin-converting+enzyme+2&column=ki&startPg=0&Increment=50&submit=Search

> <Link to Ligand-Target Pair in BindingDB>
http://www.bindingdb.org/rwd/jsp/dbsearch/PrimarySearch_ki.jsp?energyterm=kJ/mole&tag=r21&monomerid=736197&enzyme=Angiotensin-converting+enzyme+2&column=ki&startPg=0&Increment=50&submit=Search

> <Ligand HET ID in PDB>


> <PDB ID(s) for Ligand-Target Complex>


> <PubChem CID of Ligand>
176394998

> <PubChem SID of Ligand>
518296820

> <ChEBI ID of Ligand>


> <ChEMBL ID of Ligand>


> <DrugBank ID of Ligand>


> <IUPHAR_GRAC ID of Ligand>


> <KEGG ID of Ligand>


> <ZINC ID of Ligand>


> <Number of Protein Chains in Target (bigger than 1 implies a multichain complex)>
1

> <BindingDB Target Chain Sequence>
MSSSSWLLLSLVAVTAAQSTIEEQAKTFLDKFNHEAEDLFYQSSLASWNYNTNITEENVQNMNNAGDKWSAFLKEQSTLAQMYPLQEIQNLTVKLQLQALQQNGSSVLSEDKSKRLNTILNTMSTIYSTGKVCNPDNPQECLLLEPGLNEIMANSLDYNERLWAWESWRSEVGKQLRPLYEEYVVLKNEMARANHYEDYGDYWRGDYEVNGVDGYDYSRGQLIEDVEHTFEEIKPLYEHLHAYVRAKLMNAYPSYISPIGCLPAHLLGDMWGRFWTNLYSLTVPFGQKPNIDVTDAMVDQAWDAQRIFKEAEKFFVSVGLPNMTQGFWENSMLTDPGNVQKAVCHPTAWDLGKGDFRILMCTKVTMDDFLTAHHEMGHIQYDMAYAAQPFLLRNGANEGFHEAVGEIMSLSAATPKHLKSIGLLSPDFQEDNETEINFLLKQALTIVGTLPFTYMLEKWRWMVFKGEIPKDQWMKKWWEMKREIVGVVEPVPHDETYCDPASLFHVSNDYSFIRYYTRTLYQFQFQEALCQAAKHEGPLHKCDISNSTEAGQKLFNMLRLGKSEPWTLALENVVGAKNMNVRPLLNYFEPLFTWLKDQNKNSFVGWSTDWSPYADQSIKVRISLKSALGDKAYEWNDNEMYLFRSSVAYAMRQYFLKVKNQMILFGEEDVRVANLKPRISFNFFVTAPKNVSDIIPRTEVEKAIRMSRSRINDAFRLNDNSLEFLGIQPTLGPPNQPPVSIWLIVFGVVMGVIVVGIVILIFTGIRDRKKKNKARSGENPYASIDISKGENNPGFQNTDDVQTSF

> <PDB ID(s) of Target Chain>
8WBZ,8WBY,8YZJ,8XSJ,8XSF,8WTD,8WSR,8WRH,8WE4,8WE1,8WE0,8WDZ,8WDY,8WDS,8WDR,8DF5,7XO9,7XO8,7XO7,7WPC,7WPB,7WPA,7L7F,7DQA,9KY1,9KY0,9KXZ,9KXY,9KXW,9KXV,9KXU,9KXT,8I92,8I91,7Y76,7Y75,7XID,7V61,7DX9,7DX8,7DX7,7DX6,7DX5,7DWX,6M1D,6M18,6M17,8I93,8YZE,8YZD,8YZC,8YZB,7FEM,9FMM,8XAL,7V8B,7V8A,7V89,7V88,7V87,7V86,7V85,7V84,7V83,7V82,7V81,7V80,7V7Z,7EDJ,8WGW,1R4L,1R42,8E7M,8WGV,7KJ4,7KJ3,7KJ2,7XBH,9IU1,8XVM,8XV1,8XV0,8XUZ,8XUY,8XLN,8XLM,8JYP,8JYO,8JYN,8IOV,8IOU,8IF2,7XWA,7XBG,7XBF,7TN0,9IUU,8ZBQ,8XY9,8WYH,8WHZ,8WHU,8WHS,8SPI,8SPH,8JWH,8HRL,8HRK,7YEG,7VX9,7VIB,7UFK,7U0N,7L0N,7KNI,7KNH,7KNE,7KNB,7KMZ,7KMS,7KMB,7DX4,7DDP,7DDO,6VW1,3KBH,2AJF,8TOU,8TOT,8TOS,8TOR,8TOQ,7ZDQ,7YDI,7WHH,7P19,8S9G,8FXC,8FXB,8H5C,8H06,7YJ3,7YHW,7YA1,7YA0,7Y9Z,7XCP,7XCI,7XCH,7XB1,7XB0,7XAZ,7WBQ,7WBP,7WBL,7PKI,7LO4,7DRV,6LZG,8XYE

> <UniProt (SwissProt) Recommended Name of Target Chain>
Angiotensin-converting enzyme 2

> <UniProt (SwissProt) Entry Name of Target Chain>
ACE2_HUMAN

> <UniProt (SwissProt) Primary ID of Target Chain>
Q9BYF1

> <UniProt (SwissProt) Secondary ID(s) of Target Chain>
A0A7D6JAD5 C7ECU1 Q6UWP0 Q86WT0 Q9NRA7 Q9UFZ6

> <UniProt (SwissProt) Alternative ID(s) of Target Chain>


> <UniProt (TrEMBL) Submitted Name of Target Chain>


> <UniProt (TrEMBL) Entry Name of Target Chain>


> <UniProt (TrEMBL) Primary ID of Target Chain>


> <UniProt (TrEMBL) Secondary ID(s) of Target Chain>


> <UniProt (TrEMBL) Alternative ID(s) of Target Chain>


$$$$
